REMARK  5 active torsions:
REMARK  status: ('A' for Active; 'I' for Inactive)
REMARK    1  A    between atoms: C2_2  and  C3_3 
REMARK    2  A    between atoms: C2_2  and  N3_18 
REMARK       I    between atoms: C3_3  and  N1_5 
REMARK    3  A    between atoms: N2_8  and  C8_11 
REMARK    4  A    between atoms: C8_11  and  C9_12 
REMARK       I    between atoms: N3_18  and  C15_19 
REMARK    5  A    between atoms: C15_19  and  C16_21 
ROOT
ATOM      1  C1  UNK     1      54.599 -11.544  16.317  1.00  0.00     0.042 C 
ATOM      2  C2  UNK     1      55.833 -11.434  17.206  1.00  0.00     0.173 C 
ENDROOT
BRANCH   2   3
ATOM      3  C3  UNK     1      56.981 -12.317  16.666  1.00  0.00     0.242 C 
ATOM      4  O1  UNK     1      57.879 -11.797  15.991  1.00  0.00    -0.271 OA
ATOM      5  N1  UNK     1      56.975 -13.680  16.939  1.00  0.00    -0.347 N 
ATOM      6  C4  UNK     1      55.837 -14.413  17.508  1.00  0.00     0.156 C 
ATOM      7  C7  UNK     1      57.991 -14.508  16.279  1.00  0.00     0.156 C 
ATOM      8  C5  UNK     1      56.264 -15.686  18.266  1.00  0.00     0.292 C 
ATOM      9  N2  UNK     1      57.182 -16.575  17.525  1.00  0.00     0.095 N 
ATOM     10  C6  UNK     1      58.343 -15.780  17.072  1.00  0.00     0.292 C 
BRANCH   9  11
ATOM     11  C8  UNK     1      56.535 -17.265  16.396  1.00  0.00     0.311 C 
BRANCH  11  12
ATOM     12  C9  UNK     1      55.467 -18.251  16.824  1.00  0.00    -0.030 A 
ATOM     13  C10 UNK     1      54.166 -18.162  16.309  1.00  0.00     0.009 A 
ATOM     14  C11 UNK     1      53.187 -19.080  16.695  1.00  0.00     0.001 A 
ATOM     15  C12 UNK     1      53.499 -20.098  17.594  1.00  0.00     0.000 A 
ATOM     16  C13 UNK     1      54.790 -20.201  18.108  1.00  0.00     0.001 A 
ATOM     17  C14 UNK     1      55.770 -19.284  17.723  1.00  0.00     0.009 A 
ENDBRANCH  11  12
ENDBRANCH   9  11
ENDBRANCH   2   3
BRANCH   2  18
ATOM     18  N3  UNK     1      56.321 -10.059  17.222  1.00  0.00    -0.343 N 
ATOM     19  C15 UNK     1      55.780  -9.087  18.019  1.00  0.00     0.268 C 
ATOM     20  O2  UNK     1      54.828  -9.305  18.763  1.00  0.00    -0.266 OA
ATOM     21  H20 UNK     1      57.124  -9.861  16.636  1.00  0.00     0.163 HD
BRANCH  19  22
ATOM     22  C16 UNK     1      56.404  -7.788  17.926  1.00  0.00     0.102 A 
ATOM     23  C17 UNK     1      57.469  -7.311  17.180  1.00  0.00     0.049 A 
ATOM     24  C18 UNK     1      57.653  -5.933  17.487  1.00  0.00    -0.007 A 
ATOM     25  C19 UNK     1      58.556  -4.945  17.051  1.00  0.00     0.014 A 
ATOM     26  C23 UNK     1      56.685  -5.590  18.426  1.00  0.00     0.043 A 
ATOM     27  C20 UNK     1      58.456  -3.649  17.572  1.00  0.00     0.001 A 
ATOM     28  C21 UNK     1      57.477  -3.335  18.512  1.00  0.00     0.002 A 
ATOM     29  C22 UNK     1      56.569  -4.300  18.958  1.00  0.00     0.030 A 
ATOM     30  N4  UNK     1      55.948  -6.722  18.673  1.00  0.00    -0.351 N 
ATOM     31  H26 UNK     1      55.169  -6.785  19.316  1.00  0.00     0.166 HD
ENDBRANCH  19  22
ENDBRANCH   2  18
TORSDOF 5
