MODEL 1
REMARK VINA RESULT:      -9.9      0.000      0.000
REMARK  5 active torsions:
REMARK  status: ('A' for Active; 'I' for Inactive)
REMARK    1  A    between atoms: C14_5  and  C8_8 
REMARK    2  A    between atoms: C13_6  and  O3_30 
REMARK    3  A    between atoms: C2_11  and  C21_23 
REMARK    4  A    between atoms: C5_16  and  O5_17 
REMARK    5  A    between atoms: C7_20  and  O7_21 
ROOT
HETATM    1  C8  CPB A 940      39.431  37.532  30.629  1.00 27.71     0.017 A 
HETATM    2  C9  CPB A 940      38.618  36.394  30.398  1.00 24.44     0.102 A 
HETATM    3  O1  CPB A 940      38.757  35.669  29.189  1.00 23.48    -0.308 OA
HETATM    4  C2  CPB A 940      38.046  34.559  28.862  1.00 24.32     0.091 A 
HETATM    5  C3  CPB A 940      37.106  34.066  29.710  1.00 21.91     0.094 A 
HETATM    6  C4  CPB A 940      36.856  34.720  31.013  1.00 21.88     0.190 A 
HETATM    7  O4  CPB A 940      36.028  34.272  31.774  1.00 21.78    -0.287 OA
HETATM    8  C10 CPB A 940      37.674  35.958  31.373  1.00 22.83     0.082 A 
HETATM    9  C5  CPB A 940      37.525  36.667  32.606  1.00 23.26     0.085 A 
HETATM   10  C6  CPB A 940      38.329  37.807  32.835  1.00 25.16     0.074 A 
HETATM   11  C7  CPB A 940      39.282  38.242  31.867  1.00 27.86     0.077 A 
ENDROOT
BRANCH   1  12
HETATM   12  C14 CPB A 940      40.431  37.899  29.499  1.00 31.06     0.056 C 
HETATM   13  C13 CPB A 940      41.958  37.798  29.869  1.00 33.81     0.155 C 
HETATM   14  C12 CPB A 940      42.799  38.195  28.627  1.00 35.43     0.304 C 
HETATM   15  N1  CPB A 940      42.458  39.591  28.217  1.00 36.50     0.086 N 
HETATM   16  C1  CPB A 940      43.373  40.015  27.140  1.00 37.97     0.310 C 
HETATM   17  C16 CPB A 940      41.019  39.732  27.833  1.00 34.96     0.272 C 
HETATM   18  C15 CPB A 940      40.050  39.310  28.976  1.00 32.38     0.042 C 
BRANCH  13  19
HETATM   19  O3  CPB A 940      42.414  38.680  30.904  1.00 34.53    -0.393 OA
ATOM     20  H3  CPB A 940      42.069  38.303  31.704  1.00  0.00     0.210 HD
ENDBRANCH  13  19
ENDBRANCH   1  12
BRANCH  11  21
HETATM   21  O7  CPB A 940      40.059  39.361  32.125  1.00 30.40    -0.360 OA
ATOM     22  H7  CPB A 940      40.843  39.277  32.655  1.00  0.00     0.217 HD
ENDBRANCH  11  21
BRANCH   9  23
HETATM   23  O5  CPB A 940      36.610  36.268  33.597  1.00 23.43    -0.360 OA
ATOM     24  H5  CPB A 940      35.762  36.681  33.702  1.00  0.00     0.217 HD
ENDBRANCH   9  23
BRANCH   4  25
HETATM   25  C21 CPB A 940      38.328  33.875  27.508  1.00 27.00     0.020 A 
HETATM   26  C26 CPB A 940      38.054  32.473  27.352  1.00 22.79     0.016 A 
HETATM   27  C25 CPB A 940      38.307  31.822  26.112  1.00 32.35     0.001 A 
HETATM   28  C24 CPB A 940      38.851  32.556  25.002  1.00 31.27     0.002 A 
HETATM   29  C23 CPB A 940      39.125  33.944  25.147  1.00 29.47     0.025 A 
HETATM   30  C22 CPB A 940      38.873  34.600  26.374  1.00 28.86     0.047 A 
HETATM   31 CL1  CPB A 940      39.247  36.292  26.440  1.00 35.99    -0.083 Cl
ENDBRANCH   4  25
TORSDOF 5
ENDMDL
MODEL 2
REMARK VINA RESULT:      -9.3      0.997      1.129
REMARK  5 active torsions:
REMARK  status: ('A' for Active; 'I' for Inactive)
REMARK    1  A    between atoms: C14_5  and  C8_8 
REMARK    2  A    between atoms: C13_6  and  O3_30 
REMARK    3  A    between atoms: C2_11  and  C21_23 
REMARK    4  A    between atoms: C5_16  and  O5_17 
REMARK    5  A    between atoms: C7_20  and  O7_21 
ROOT
HETATM    1  C8  CPB A 940      39.929  38.177  29.803  1.00 27.71     0.017 A 
HETATM    2  C9  CPB A 940      39.120  37.016  29.883  1.00 24.44     0.102 A 
HETATM    3  O1  CPB A 940      39.106  36.097  28.805  1.00 23.48    -0.308 OA
HETATM    4  C2  CPB A 940      38.384  34.948  28.773  1.00 24.32     0.091 A 
HETATM    5  C3  CPB A 940      37.585  34.604  29.816  1.00 21.91     0.094 A 
HETATM    6  C4  CPB A 940      37.504  35.468  31.014  1.00 21.88     0.190 A 
HETATM    7  O4  CPB A 940      36.802  35.154  31.949  1.00 21.78    -0.287 OA
HETATM    8  C10 CPB A 940      38.334  36.750  31.042  1.00 22.83     0.082 A 
HETATM    9  C5  CPB A 940      38.341  37.657  32.147  1.00 23.26     0.085 A 
HETATM   10  C6  CPB A 940      39.141  38.820  32.066  1.00 25.16     0.074 A 
HETATM   11  C7  CPB A 940      39.938  39.086  30.913  1.00 27.86     0.077 A 
ENDROOT
BRANCH   1  12
HETATM   12  C14 CPB A 940      40.751  38.349  28.496  1.00 31.06     0.056 C 
HETATM   13  C13 CPB A 940      42.317  38.282  28.652  1.00 33.81     0.155 C 
HETATM   14  C12 CPB A 940      42.964  38.468  27.254  1.00 35.43     0.304 C 
HETATM   15  N1  CPB A 940      42.557  39.789  26.686  1.00 36.50     0.086 N 
HETATM   16  C1  CPB A 940      43.303  40.026  25.435  1.00 37.97     0.310 C 
HETATM   17  C16 CPB A 940      41.077  39.892  26.498  1.00 34.96     0.272 C 
HETATM   18  C15 CPB A 940      40.288  39.668  27.821  1.00 32.38     0.042 C 
BRANCH  13  19
HETATM   19  O3  CPB A 940      42.912  39.306  29.460  1.00 34.53    -0.393 OA
ATOM     20  H3  CPB A 940      42.281  39.457  30.153  1.00  0.00     0.210 HD
ENDBRANCH  13  19
ENDBRANCH   1  12
BRANCH  11  21
HETATM   21  O7  CPB A 940      40.715  40.233  30.867  1.00 30.40    -0.360 OA
ATOM     22  H7  CPB A 940      41.328  40.357  30.151  1.00  0.00     0.217 HD
ENDBRANCH  11  21
BRANCH   9  23
HETATM   23  O5  CPB A 940      37.585  37.430  33.311  1.00 23.43    -0.360 OA
ATOM     24  H5  CPB A 940      37.948  37.004  34.078  1.00  0.00     0.217 HD
ENDBRANCH   9  23
BRANCH   4  25
HETATM   25  C21 CPB A 940      38.489  34.045  27.525  1.00 27.00     0.020 A 
HETATM   26  C26 CPB A 940      38.110  32.662  27.619  1.00 22.79     0.016 A 
HETATM   27  C25 CPB A 940      38.200  31.811  26.481  1.00 32.35     0.001 A 
HETATM   28  C24 CPB A 940      38.683  32.321  25.226  1.00 31.27     0.002 A 
HETATM   29  C23 CPB A 940      39.061  33.689  25.125  1.00 29.47     0.025 A 
HETATM   30  C22 CPB A 940      38.971  34.542  26.249  1.00 28.86     0.047 A 
HETATM   31 CL1  CPB A 940      39.460  36.189  26.014  1.00 35.99    -0.083 Cl
ENDBRANCH   4  25
TORSDOF 5
ENDMDL
MODEL 3
REMARK VINA RESULT:      -9.1      2.308      5.773
REMARK  5 active torsions:
REMARK  status: ('A' for Active; 'I' for Inactive)
REMARK    1  A    between atoms: C14_5  and  C8_8 
REMARK    2  A    between atoms: C13_6  and  O3_30 
REMARK    3  A    between atoms: C2_11  and  C21_23 
REMARK    4  A    between atoms: C5_16  and  O5_17 
REMARK    5  A    between atoms: C7_20  and  O7_21 
ROOT
HETATM    1  C8  CPB A 940      39.082  35.812  28.568  1.00 27.71     0.017 A 
HETATM    2  C9  CPB A 940      38.575  36.056  29.870  1.00 24.44     0.102 A 
HETATM    3  O1  CPB A 940      39.027  37.185  30.596  1.00 23.48    -0.308 OA
HETATM    4  C2  CPB A 940      38.605  37.528  31.840  1.00 24.32     0.091 A 
HETATM    5  C3  CPB A 940      37.693  36.764  32.496  1.00 21.91     0.094 A 
HETATM    6  C4  CPB A 940      37.130  35.555  31.856  1.00 21.88     0.190 A 
HETATM    7  O4  CPB A 940      36.307  34.883  32.436  1.00 21.78    -0.287 OA
HETATM    8  C10 CPB A 940      37.602  35.191  30.450  1.00 22.83     0.082 A 
HETATM    9  C5  CPB A 940      37.123  34.052  29.731  1.00 23.26     0.085 A 
HETATM   10  C6  CPB A 940      37.633  33.801  28.437  1.00 25.16     0.074 A 
HETATM   11  C7  CPB A 940      38.599  34.670  27.847  1.00 27.86     0.077 A 
ENDROOT
BRANCH   1  12
HETATM   12  C14 CPB A 940      40.126  36.833  28.039  1.00 31.06     0.056 C 
HETATM   13  C13 CPB A 940      39.705  37.650  26.761  1.00 33.81     0.155 C 
HETATM   14  C12 CPB A 940      40.861  38.614  26.383  1.00 35.43     0.304 C 
HETATM   15  N1  CPB A 940      42.100  37.825  26.107  1.00 36.50     0.086 N 
HETATM   16  C1  CPB A 940      43.144  38.733  25.594  1.00 37.97     0.310 C 
HETATM   17  C16 CPB A 940      42.553  37.048  27.302  1.00 34.96     0.272 C 
HETATM   18  C15 CPB A 940      41.463  36.071  27.830  1.00 32.38     0.042 C 
BRANCH  13  19
HETATM   19  O3  CPB A 940      39.478  36.883  25.570  1.00 34.53    -0.393 OA
ATOM     20  H3  CPB A 940      39.648  37.492  24.862  1.00  0.00     0.210 HD
ENDBRANCH  13  19
ENDBRANCH   1  12
BRANCH  11  21
HETATM   21  O7  CPB A 940      39.076  34.399  26.573  1.00 30.40    -0.360 OA
ATOM     22  H7  CPB A 940      40.013  34.367  26.419  1.00  0.00     0.217 HD
ENDBRANCH  11  21
BRANCH   9  23
HETATM   23  O5  CPB A 940      36.160  33.176  30.265  1.00 23.43    -0.360 OA
ATOM     24  H5  CPB A 940      35.229  33.292  30.115  1.00  0.00     0.217 HD
ENDBRANCH   9  23
BRANCH   4  25
HETATM   25  C21 CPB A 940      39.186  38.801  32.491  1.00 27.00     0.020 A 
HETATM   26  C26 CPB A 940      39.835  38.708  33.771  1.00 22.79     0.016 A 
HETATM   27  C25 CPB A 940      40.377  39.869  34.390  1.00 32.35     0.001 A 
HETATM   28  C24 CPB A 940      40.273  41.153  33.749  1.00 31.27     0.002 A 
HETATM   29  C23 CPB A 940      39.633  41.253  32.482  1.00 29.47     0.025 A 
HETATM   30  C22 CPB A 940      39.095  40.104  31.858  1.00 28.86     0.047 A 
HETATM   31 CL1  CPB A 940      38.335  40.343  30.319  1.00 35.99    -0.083 Cl
ENDBRANCH   4  25
TORSDOF 5
ENDMDL
MODEL 4
REMARK VINA RESULT:      -8.4      1.494      2.104
REMARK  5 active torsions:
REMARK  status: ('A' for Active; 'I' for Inactive)
REMARK    1  A    between atoms: C14_5  and  C8_8 
REMARK    2  A    between atoms: C13_6  and  O3_30 
REMARK    3  A    between atoms: C2_11  and  C21_23 
REMARK    4  A    between atoms: C5_16  and  O5_17 
REMARK    5  A    between atoms: C7_20  and  O7_21 
ROOT
HETATM    1  C8  CPB A 940      39.888  38.003  30.496  1.00 27.71     0.017 A 
HETATM    2  C9  CPB A 940      39.035  36.884  30.322  1.00 24.44     0.102 A 
HETATM    3  O1  CPB A 940      39.099  36.136  29.121  1.00 23.48    -0.308 OA
HETATM    4  C2  CPB A 940      38.345  35.041  28.846  1.00 24.32     0.091 A 
HETATM    5  C3  CPB A 940      37.433  34.586  29.744  1.00 21.91     0.094 A 
HETATM    6  C4  CPB A 940      37.260  35.267  31.046  1.00 21.88     0.190 A 
HETATM    7  O4  CPB A 940      36.457  34.853  31.851  1.00 21.78    -0.287 OA
HETATM    8  C10 CPB A 940      38.127  36.488  31.347  1.00 22.83     0.082 A 
HETATM    9  C5  CPB A 940      38.053  37.221  32.573  1.00 23.26     0.085 A 
HETATM   10  C6  CPB A 940      38.896  38.343  32.746  1.00 25.16     0.074 A 
HETATM   11  C7  CPB A 940      39.814  38.736  31.727  1.00 27.86     0.077 A 
ENDROOT
BRANCH   1  12
HETATM   12  C14 CPB A 940      40.843  38.325  29.315  1.00 31.06     0.056 C 
HETATM   13  C13 CPB A 940      40.197  39.079  28.092  1.00 33.81     0.155 C 
HETATM   14  C12 CPB A 940      41.293  39.317  27.020  1.00 35.43     0.304 C 
HETATM   15  N1  CPB A 940      41.856  38.004  26.580  1.00 36.50     0.086 N 
HETATM   16  C1  CPB A 940      42.779  38.231  25.450  1.00 37.97     0.310 C 
HETATM   17  C16 CPB A 940      42.502  37.260  27.705  1.00 34.96     0.272 C 
HETATM   18  C15 CPB A 940      41.526  36.998  28.888  1.00 32.38     0.042 C 
BRANCH  13  19
HETATM   19  O3  CPB A 940      39.163  38.372  27.393  1.00 34.53    -0.393 OA
ATOM     20  H3  CPB A 940      38.761  39.031  26.840  1.00  0.00     0.210 HD
ENDBRANCH  13  19
ENDBRANCH   1  12
BRANCH  11  21
HETATM   21  O7  CPB A 940      40.631  39.838  31.930  1.00 30.40    -0.360 OA
ATOM     22  H7  CPB A 940      40.771  40.164  32.812  1.00  0.00     0.217 HD
ENDBRANCH  11  21
BRANCH   9  23
HETATM   23  O5  CPB A 940      37.175  36.862  33.612  1.00 23.43    -0.360 OA
ATOM     24  H5  CPB A 940      37.003  37.432  34.351  1.00  0.00     0.217 HD
ENDBRANCH   9  23
BRANCH   4  25
HETATM   25  C21 CPB A 940      38.546  34.328  27.492  1.00 27.00     0.020 A 
HETATM   26  C26 CPB A 940      39.010  35.080  26.358  1.00 22.79     0.016 A 
HETATM   27  C25 CPB A 940      39.201  34.444  25.099  1.00 32.35     0.001 A 
HETATM   28  C24 CPB A 940      38.921  33.042  24.942  1.00 31.27     0.002 A 
HETATM   29  C23 CPB A 940      38.462  32.290  26.059  1.00 29.47     0.025 A 
HETATM   30  C22 CPB A 940      38.273  32.913  27.314  1.00 28.86     0.047 A 
HETATM   31 CL1  CPB A 940      37.707  31.903  28.604  1.00 35.99    -0.083 Cl
ENDBRANCH   4  25
TORSDOF 5
ENDMDL
MODEL 5
REMARK VINA RESULT:      -8.3      2.201      3.001
REMARK  5 active torsions:
REMARK  status: ('A' for Active; 'I' for Inactive)
REMARK    1  A    between atoms: C14_5  and  C8_8 
REMARK    2  A    between atoms: C13_6  and  O3_30 
REMARK    3  A    between atoms: C2_11  and  C21_23 
REMARK    4  A    between atoms: C5_16  and  O5_17 
REMARK    5  A    between atoms: C7_20  and  O7_21 
ROOT
HETATM    1  C8  CPB A 940      40.077  39.049  28.372  1.00 27.71     0.017 A 
HETATM    2  C9  CPB A 940      39.457  37.873  28.863  1.00 24.44     0.102 A 
HETATM    3  O1  CPB A 940      39.323  36.747  28.015  1.00 23.48    -0.308 OA
HETATM    4  C2  CPB A 940      38.761  35.565  28.377  1.00 24.32     0.091 A 
HETATM    5  C3  CPB A 940      38.259  35.391  29.627  1.00 21.91     0.094 A 
HETATM    6  C4  CPB A 940      38.335  36.483  30.622  1.00 21.88     0.190 A 
HETATM    7  O4  CPB A 940      37.900  36.324  31.741  1.00 21.78    -0.287 OA
HETATM    8  C10 CPB A 940      38.983  37.802  30.205  1.00 22.83     0.082 A 
HETATM    9  C5  CPB A 940      39.119  38.922  31.084  1.00 23.26     0.085 A 
HETATM   10  C6  CPB A 940      39.729  40.099  30.593  1.00 25.16     0.074 A 
HETATM   11  C7  CPB A 940      40.215  40.173  29.253  1.00 27.86     0.077 A 
ENDROOT
BRANCH   1  12
HETATM   12  C14 CPB A 940      40.565  39.000  26.897  1.00 31.06     0.056 C 
HETATM   13  C13 CPB A 940      42.125  39.047  26.685  1.00 33.81     0.155 C 
HETATM   14  C12 CPB A 940      42.422  38.985  25.163  1.00 35.43     0.304 C 
HETATM   15  N1  CPB A 940      41.772  40.145  24.480  1.00 36.50     0.086 N 
HETATM   16  C1  CPB A 940      42.192  40.166  23.065  1.00 37.97     0.310 C 
HETATM   17  C16 CPB A 940      40.284  40.131  24.634  1.00 34.96     0.272 C 
HETATM   18  C15 CPB A 940      39.837  40.134  26.125  1.00 32.38     0.042 C 
BRANCH  13  19
HETATM   19  O3  CPB A 940      42.784  40.241  27.128  1.00 34.53    -0.393 OA
ATOM     20  H3  CPB A 940      43.396  39.940  27.790  1.00  0.00     0.210 HD
ENDBRANCH  13  19
ENDBRANCH   1  12
BRANCH  11  21
HETATM   21  O7  CPB A 940      40.813  41.340  28.804  1.00 30.40    -0.360 OA
ATOM     22  H7  CPB A 940      40.960  42.056  29.411  1.00  0.00     0.217 HD
ENDBRANCH  11  21
BRANCH   9  23
HETATM   23  O5  CPB A 940      38.671  38.892  32.416  1.00 23.43    -0.360 OA
ATOM     24  H5  CPB A 940      38.036  38.257  32.725  1.00  0.00     0.217 HD
ENDBRANCH   9  23
BRANCH   4  25
HETATM   25  C21 CPB A 940      38.703  34.427  27.336  1.00 27.00     0.020 A 
HETATM   26  C26 CPB A 940      39.201  34.657  26.007  1.00 22.79     0.016 A 
HETATM   27  C25 CPB A 940      39.156  33.622  25.031  1.00 32.35     0.001 A 
HETATM   28  C24 CPB A 940      38.601  32.336  25.357  1.00 31.27     0.002 A 
HETATM   29  C23 CPB A 940      38.107  32.099  26.670  1.00 29.47     0.025 A 
HETATM   30  C22 CPB A 940      38.150  33.120  27.647  1.00 28.86     0.047 A 
HETATM   31 CL1  CPB A 940      37.518  32.724  29.212  1.00 35.99    -0.083 Cl
ENDBRANCH   4  25
TORSDOF 5
ENDMDL
MODEL 6
REMARK VINA RESULT:      -8.2      2.383      5.534
REMARK  5 active torsions:
REMARK  status: ('A' for Active; 'I' for Inactive)
REMARK    1  A    between atoms: C14_5  and  C8_8 
REMARK    2  A    between atoms: C13_6  and  O3_30 
REMARK    3  A    between atoms: C2_11  and  C21_23 
REMARK    4  A    between atoms: C5_16  and  O5_17 
REMARK    5  A    between atoms: C7_20  and  O7_21 
ROOT
HETATM    1  C8  CPB A 940      39.660  36.947  26.573  1.00 27.71     0.017 A 
HETATM    2  C9  CPB A 940      39.041  36.061  27.492  1.00 24.44     0.102 A 
HETATM    3  O1  CPB A 940      38.856  36.465  28.836  1.00 23.48    -0.308 OA
HETATM    4  C2  CPB A 940      38.266  35.712  29.799  1.00 24.32     0.091 A 
HETATM    5  C3  CPB A 940      37.811  34.463  29.519  1.00 21.91     0.094 A 
HETATM    6  C4  CPB A 940      37.934  33.910  28.152  1.00 21.88     0.190 A 
HETATM    7  O4  CPB A 940      37.516  32.803  27.899  1.00 21.78    -0.287 OA
HETATM    8  C10 CPB A 940      38.586  34.776  27.075  1.00 22.83     0.082 A 
HETATM    9  C5  CPB A 940      38.752  34.351  25.720  1.00 23.26     0.085 A 
HETATM   10  C6  CPB A 940      39.377  35.229  24.805  1.00 25.16     0.074 A 
HETATM   11  C7  CPB A 940      39.825  36.521  25.213  1.00 27.86     0.077 A 
ENDROOT
BRANCH   1  12
HETATM   12  C14 CPB A 940      40.100  38.324  27.142  1.00 31.06     0.056 C 
HETATM   13  C13 CPB A 940      41.455  38.337  27.945  1.00 33.81     0.155 C 
HETATM   14  C12 CPB A 940      41.732  39.785  28.429  1.00 35.43     0.304 C 
HETATM   15  N1  CPB A 940      40.609  40.244  29.302  1.00 36.50     0.086 N 
HETATM   16  C1  CPB A 940      40.958  41.554  29.885  1.00 37.97     0.310 C 
HETATM   17  C16 CPB A 940      39.302  40.270  28.575  1.00 34.96     0.272 C 
HETATM   18  C15 CPB A 940      38.920  38.883  27.981  1.00 32.38     0.042 C 
BRANCH  13  19
HETATM   19  O3  CPB A 940      41.483  37.549  29.143  1.00 34.53    -0.393 OA
ATOM     20  H3  CPB A 940      40.578  37.295  29.280  1.00  0.00     0.210 HD
ENDBRANCH  13  19
ENDBRANCH   1  12
BRANCH  11  21
HETATM   21  O7  CPB A 940      40.429  37.360  24.290  1.00 30.40    -0.360 OA
ATOM     22  H7  CPB A 940      40.142  38.263  24.218  1.00  0.00     0.217 HD
ENDBRANCH  11  21
BRANCH   9  23
HETATM   23  O5  CPB A 940      38.313  33.094  25.267  1.00 23.43    -0.360 OA
ATOM     24  H5  CPB A 940      38.062  32.939  24.364  1.00  0.00     0.217 HD
ENDBRANCH   9  23
BRANCH   4  25
HETATM   25  C21 CPB A 940      38.127  36.305  31.218  1.00 27.00     0.020 A 
HETATM   26  C26 CPB A 940      38.958  37.411  31.607  1.00 22.79     0.016 A 
HETATM   27  C25 CPB A 940      38.848  37.973  32.910  1.00 32.35     0.001 A 
HETATM   28  C24 CPB A 940      37.912  37.433  33.859  1.00 31.27     0.002 A 
HETATM   29  C23 CPB A 940      37.085  36.338  33.482  1.00 29.47     0.025 A 
HETATM   30  C22 CPB A 940      37.185  35.776  32.188  1.00 28.86     0.047 A 
HETATM   31 CL1  CPB A 940      36.133  34.444  31.838  1.00 35.99    -0.083 Cl
ENDBRANCH   4  25
TORSDOF 5
ENDMDL
MODEL 7
REMARK VINA RESULT:      -8.0      3.372      6.256
REMARK  5 active torsions:
REMARK  status: ('A' for Active; 'I' for Inactive)
REMARK    1  A    between atoms: C14_5  and  C8_8 
REMARK    2  A    between atoms: C13_6  and  O3_30 
REMARK    3  A    between atoms: C2_11  and  C21_23 
REMARK    4  A    between atoms: C5_16  and  O5_17 
REMARK    5  A    between atoms: C7_20  and  O7_21 
ROOT
HETATM    1  C8  CPB A 940      43.652  36.564  28.677  1.00 27.71     0.017 A 
HETATM    2  C9  CPB A 940      42.329  36.654  28.178  1.00 24.44     0.102 A 
HETATM    3  O1  CPB A 940      41.238  36.336  29.023  1.00 23.48    -0.308 OA
HETATM    4  C2  CPB A 940      39.931  36.398  28.662  1.00 24.32     0.091 A 
HETATM    5  C3  CPB A 940      39.578  36.774  27.405  1.00 21.91     0.094 A 
HETATM    6  C4  CPB A 940      40.613  37.139  26.414  1.00 21.88     0.190 A 
HETATM    7  O4  CPB A 940      40.297  37.487  25.298  1.00 21.78    -0.287 OA
HETATM    8  C10 CPB A 940      42.079  37.080  26.840  1.00 22.83     0.082 A 
HETATM    9  C5  CPB A 940      43.163  37.418  25.971  1.00 23.26     0.085 A 
HETATM   10  C6  CPB A 940      44.485  37.320  26.465  1.00 25.16     0.074 A 
HETATM   11  C7  CPB A 940      44.740  36.905  27.806  1.00 27.86     0.077 A 
ENDROOT
BRANCH   1  12
HETATM   12  C14 CPB A 940      43.795  36.103  30.154  1.00 31.06     0.056 C 
HETATM   13  C13 CPB A 940      44.292  37.197  31.172  1.00 33.81     0.155 C 
HETATM   14  C12 CPB A 940      44.370  36.561  32.586  1.00 35.43     0.304 C 
HETATM   15  N1  CPB A 940      45.319  35.406  32.563  1.00 36.50     0.086 N 
HETATM   16  C1  CPB A 940      45.509  34.912  33.941  1.00 37.97     0.310 C 
HETATM   17  C16 CPB A 940      44.877  34.329  31.624  1.00 34.96     0.272 C 
HETATM   18  C15 CPB A 940      44.700  34.841  30.165  1.00 32.38     0.042 C 
BRANCH  13  19
HETATM   19  O3  CPB A 940      45.609  37.718  30.943  1.00 34.53    -0.393 OA
ATOM     20  H3  CPB A 940      45.754  37.588  30.013  1.00  0.00     0.210 HD
ENDBRANCH  13  19
ENDBRANCH   1  12
BRANCH  11  21
HETATM   21  O7  CPB A 940      46.047  36.824  28.261  1.00 30.40    -0.360 OA
ATOM     22  H7  CPB A 940      46.697  36.362  27.745  1.00  0.00     0.217 HD
ENDBRANCH  11  21
BRANCH   9  23
HETATM   23  O5  CPB A 940      42.961  37.847  24.647  1.00 23.43    -0.360 OA
ATOM     24  H5  CPB A 940      43.366  37.414  23.905  1.00  0.00     0.217 HD
ENDBRANCH   9  23
BRANCH   4  25
HETATM   25  C21 CPB A 940      38.858  36.031  29.709  1.00 27.00     0.020 A 
HETATM   26  C26 CPB A 940      38.737  36.819  30.905  1.00 22.79     0.016 A 
HETATM   27  C25 CPB A 940      37.755  36.497  31.884  1.00 32.35     0.001 A 
HETATM   28  C24 CPB A 940      36.880  35.372  31.696  1.00 31.27     0.002 A 
HETATM   29  C23 CPB A 940      36.993  34.586  30.515  1.00 29.47     0.025 A 
HETATM   30  C22 CPB A 940      37.963  34.901  29.535  1.00 28.86     0.047 A 
HETATM   31 CL1  CPB A 940      38.014  33.876  28.139  1.00 35.99    -0.083 Cl
ENDBRANCH   4  25
TORSDOF 5
ENDMDL
MODEL 8
REMARK VINA RESULT:      -7.8      3.356      6.150
REMARK  5 active torsions:
REMARK  status: ('A' for Active; 'I' for Inactive)
REMARK    1  A    between atoms: C14_5  and  C8_8 
REMARK    2  A    between atoms: C13_6  and  O3_30 
REMARK    3  A    between atoms: C2_11  and  C21_23 
REMARK    4  A    between atoms: C5_16  and  O5_17 
REMARK    5  A    between atoms: C7_20  and  O7_21 
ROOT
HETATM    1  C8  CPB A 940      43.599  36.797  28.544  1.00 27.71     0.017 A 
HETATM    2  C9  CPB A 940      42.286  36.786  28.008  1.00 24.44     0.102 A 
HETATM    3  O1  CPB A 940      41.205  36.362  28.818  1.00 23.48    -0.308 OA
HETATM    4  C2  CPB A 940      39.907  36.321  28.421  1.00 24.32     0.091 A 
HETATM    5  C3  CPB A 940      39.557  36.688  27.161  1.00 21.91     0.094 A 
HETATM    6  C4  CPB A 940      40.584  37.157  26.205  1.00 21.88     0.190 A 
HETATM    7  O4  CPB A 940      40.270  37.497  25.086  1.00 21.78    -0.287 OA
HETATM    8  C10 CPB A 940      42.038  37.212  26.671  1.00 22.83     0.082 A 
HETATM    9  C5  CPB A 940      43.112  37.656  25.839  1.00 23.26     0.085 A 
HETATM   10  C6  CPB A 940      44.424  37.660  26.368  1.00 25.16     0.074 A 
HETATM   11  C7  CPB A 940      44.677  37.244  27.709  1.00 27.86     0.077 A 
ENDROOT
BRANCH   1  12
HETATM   12  C14 CPB A 940      43.741  36.323  30.016  1.00 31.06     0.056 C 
HETATM   13  C13 CPB A 940      44.169  37.425  31.057  1.00 33.81     0.155 C 
HETATM   14  C12 CPB A 940      44.256  36.774  32.463  1.00 35.43     0.304 C 
HETATM   15  N1  CPB A 940      45.259  35.666  32.440  1.00 36.50     0.086 N 
HETATM   16  C1  CPB A 940      45.450  35.162  33.814  1.00 37.97     0.310 C 
HETATM   17  C16 CPB A 940      44.882  34.582  31.481  1.00 34.96     0.272 C 
HETATM   18  C15 CPB A 940      44.704  35.106  30.026  1.00 32.38     0.042 C 
BRANCH  13  19
HETATM   19  O3  CPB A 940      45.463  38.011  30.855  1.00 34.53    -0.393 OA
ATOM     20  H3  CPB A 940      45.925  37.382  30.314  1.00  0.00     0.210 HD
ENDBRANCH  13  19
ENDBRANCH   1  12
BRANCH  11  21
HETATM   21  O7  CPB A 940      45.974  37.265  28.199  1.00 30.40    -0.360 OA
ATOM     22  H7  CPB A 940      46.576  36.569  27.965  1.00  0.00     0.217 HD
ENDBRANCH  11  21
BRANCH   9  23
HETATM   23  O5  CPB A 940      42.910  38.090  24.516  1.00 23.43    -0.360 OA
ATOM     24  H5  CPB A 940      42.668  37.495  23.817  1.00  0.00     0.217 HD
ENDBRANCH   9  23
BRANCH   4  25
HETATM   25  C21 CPB A 940      38.841  35.846  29.431  1.00 27.00     0.020 A 
HETATM   26  C26 CPB A 940      38.049  34.684  29.131  1.00 22.79     0.016 A 
HETATM   27  C25 CPB A 940      37.060  34.229  30.049  1.00 32.35     0.001 A 
HETATM   28  C24 CPB A 940      36.832  34.932  31.282  1.00 31.27     0.002 A 
HETATM   29  C23 CPB A 940      37.612  36.083  31.587  1.00 29.47     0.025 A 
HETATM   30  C22 CPB A 940      38.599  36.540  30.684  1.00 28.86     0.047 A 
HETATM   31 CL1  CPB A 940      39.487  37.952  31.155  1.00 35.99    -0.083 Cl
ENDBRANCH   4  25
TORSDOF 5
ENDMDL
MODEL 9
REMARK VINA RESULT:      -7.3      2.703      4.585
REMARK  5 active torsions:
REMARK  status: ('A' for Active; 'I' for Inactive)
REMARK    1  A    between atoms: C14_5  and  C8_8 
REMARK    2  A    between atoms: C13_6  and  O3_30 
REMARK    3  A    between atoms: C2_11  and  C21_23 
REMARK    4  A    between atoms: C5_16  and  O5_17 
REMARK    5  A    between atoms: C7_20  and  O7_21 
ROOT
HETATM    1  C8  CPB A 940      40.843  40.061  29.429  1.00 27.71     0.017 A 
HETATM    2  C9  CPB A 940      40.261  39.428  30.556  1.00 24.44     0.102 A 
HETATM    3  O1  CPB A 940      39.485  38.257  30.378  1.00 23.48    -0.308 OA
HETATM    4  C2  CPB A 940      38.892  37.558  31.380  1.00 24.32     0.091 A 
HETATM    5  C3  CPB A 940      39.002  37.970  32.670  1.00 21.91     0.094 A 
HETATM    6  C4  CPB A 940      39.788  39.178  33.006  1.00 21.88     0.190 A 
HETATM    7  O4  CPB A 940      39.897  39.536  34.157  1.00 21.78    -0.287 OA
HETATM    8  C10 CPB A 940      40.462  39.944  31.870  1.00 22.83     0.082 A 
HETATM    9  C5  CPB A 940      41.252  41.118  32.076  1.00 23.26     0.085 A 
HETATM   10  C6  CPB A 940      41.825  41.756  30.952  1.00 25.16     0.074 A 
HETATM   11  C7  CPB A 940      41.636  41.239  29.636  1.00 27.86     0.077 A 
ENDROOT
BRANCH   1  12
HETATM   12  C14 CPB A 940      40.564  39.397  28.053  1.00 31.06     0.056 C 
HETATM   13  C13 CPB A 940      41.778  38.643  27.392  1.00 33.81     0.155 C 
HETATM   14  C12 CPB A 940      41.315  38.046  26.037  1.00 35.43     0.304 C 
HETATM   15  N1  CPB A 940      40.840  39.144  25.142  1.00 36.50     0.086 N 
HETATM   16  C1  CPB A 940      40.555  38.587  23.805  1.00 37.97     0.310 C 
HETATM   17  C16 CPB A 940      39.669  39.876  25.718  1.00 34.96     0.272 C 
HETATM   18  C15 CPB A 940      39.975  40.487  27.117  1.00 32.38     0.042 C 
BRANCH  13  19
HETATM   19  O3  CPB A 940      42.913  39.453  27.055  1.00 34.53    -0.393 OA
ATOM     20  H3  CPB A 940      42.602  40.014  26.353  1.00  0.00     0.210 HD
ENDBRANCH  13  19
ENDBRANCH   1  12
BRANCH  11  21
HETATM   21  O7  CPB A 940      42.216  41.885  28.555  1.00 30.40    -0.360 OA
ATOM     22  H7  CPB A 940      41.664  42.309  27.909  1.00  0.00     0.217 HD
ENDBRANCH  11  21
BRANCH   9  23
HETATM   23  O5  CPB A 940      41.479  41.657  33.355  1.00 23.43    -0.360 OA
ATOM     24  H5  CPB A 940      41.027  41.341  34.127  1.00  0.00     0.217 HD
ENDBRANCH   9  23
BRANCH   4  25
HETATM   25  C21 CPB A 940      38.089  36.290  31.020  1.00 27.00     0.020 A 
HETATM   26  C26 CPB A 940      37.136  35.765  31.959  1.00 22.79     0.016 A 
HETATM   27  C25 CPB A 940      36.385  34.597  31.647  1.00 32.35     0.001 A 
HETATM   28  C24 CPB A 940      36.579  33.919  30.394  1.00 31.27     0.002 A 
HETATM   29  C23 CPB A 940      37.521  34.431  29.459  1.00 29.47     0.025 A 
HETATM   30  C22 CPB A 940      38.268  35.594  29.758  1.00 28.86     0.047 A 
HETATM   31 CL1  CPB A 940      39.389  36.128  28.548  1.00 35.99    -0.083 Cl
ENDBRANCH   4  25
TORSDOF 5
ENDMDL
MODEL 10
REMARK VINA RESULT:      -7.0      3.190      6.006
REMARK  5 active torsions:
REMARK  status: ('A' for Active; 'I' for Inactive)
REMARK    1  A    between atoms: C14_5  and  C8_8 
REMARK    2  A    between atoms: C13_6  and  O3_30 
REMARK    3  A    between atoms: C2_11  and  C21_23 
REMARK    4  A    between atoms: C5_16  and  O5_17 
REMARK    5  A    between atoms: C7_20  and  O7_21 
ROOT
HETATM    1  C8  CPB A 940      43.666  37.655  27.782  1.00 27.71     0.017 A 
HETATM    2  C9  CPB A 940      42.289  37.924  27.582  1.00 24.44     0.102 A 
HETATM    3  O1  CPB A 940      41.321  36.998  28.041  1.00 23.48    -0.308 OA
HETATM    4  C2  CPB A 940      39.978  37.153  27.919  1.00 24.32     0.091 A 
HETATM    5  C3  CPB A 940      39.461  38.251  27.308  1.00 21.91     0.094 A 
HETATM    6  C4  CPB A 940      40.355  39.305  26.782  1.00 21.88     0.190 A 
HETATM    7  O4  CPB A 940      39.893  40.290  26.249  1.00 21.78    -0.287 OA
HETATM    8  C10 CPB A 940      41.863  39.124  26.940  1.00 22.83     0.082 A 
HETATM    9  C5  CPB A 940      42.821  40.080  26.479  1.00 23.26     0.085 A 
HETATM   10  C6  CPB A 940      44.196  39.809  26.669  1.00 25.16     0.074 A 
HETATM   11  C7  CPB A 940      44.628  38.615  27.320  1.00 27.86     0.077 A 
ENDROOT
BRANCH   1  12
HETATM   12  C14 CPB A 940      44.004  36.323  28.505  1.00 31.06     0.056 C 
HETATM   13  C13 CPB A 940      44.435  36.448  30.015  1.00 33.81     0.155 C 
HETATM   14  C12 CPB A 940      44.728  35.028  30.568  1.00 35.43     0.304 C 
HETATM   15  N1  CPB A 940      45.821  34.395  29.769  1.00 36.50     0.086 N 
HETATM   16  C1  CPB A 940      46.201  33.116  30.400  1.00 37.97     0.310 C 
HETATM   17  C16 CPB A 940      45.449  34.234  28.329  1.00 34.96     0.272 C 
HETATM   18  C15 CPB A 940      45.072  35.585  27.653  1.00 32.38     0.042 C 
BRANCH  13  19
HETATM   19  O3  CPB A 940      45.641  37.183  30.266  1.00 34.53    -0.393 OA
ATOM     20  H3  CPB A 940      46.273  36.811  29.662  1.00  0.00     0.210 HD
ENDBRANCH  13  19
ENDBRANCH   1  12
BRANCH  11  21
HETATM   21  O7  CPB A 940      45.983  38.382  27.496  1.00 30.40    -0.360 OA
ATOM     22  H7  CPB A 940      46.359  37.558  27.210  1.00  0.00     0.217 HD
ENDBRANCH  11  21
BRANCH   9  23
HETATM   23  O5  CPB A 940      42.444  41.278  25.846  1.00 23.43    -0.360 OA
ATOM     24  H5  CPB A 940      42.809  41.549  25.012  1.00  0.00     0.217 HD
ENDBRANCH   9  23
BRANCH   4  25
HETATM   25  C21 CPB A 940      39.054  36.055  28.487  1.00 27.00     0.020 A 
HETATM   26  C26 CPB A 940      38.522  36.194  29.816  1.00 22.79     0.016 A 
HETATM   27  C25 CPB A 940      37.670  35.192  30.359  1.00 32.35     0.001 A 
HETATM   28  C24 CPB A 940      37.338  34.022  29.592  1.00 31.27     0.002 A 
HETATM   29  C23 CPB A 940      37.859  33.877  28.276  1.00 29.47     0.025 A 
HETATM   30  C22 CPB A 940      38.704  34.868  27.726  1.00 28.86     0.047 A 
HETATM   31 CL1  CPB A 940      39.285  34.587  26.117  1.00 35.99    -0.083 Cl
ENDBRANCH   4  25
TORSDOF 5
ENDMDL
