MODEL 1
REMARK VINA RESULT:      -8.5      0.000      0.000
REMARK  2 active torsions:
REMARK  status: ('A' for Active; 'I' for Inactive)
REMARK    1  A    between atoms: C2_2  and  N2_12 
REMARK       I    between atoms: N2_12  and  C10_13 
REMARK    2  A    between atoms: C10_13  and  C11_15 
ROOT
ATOM      1  N2  UNK     1      40.402  37.418  26.910  1.00  0.00    -0.342 N 
ATOM      2  C10 UNK     1      39.801  36.194  27.100  1.00  0.00     0.269 C 
ATOM      3  O2  UNK     1      39.882  35.297  26.267  1.00  0.00    -0.266 OA
ATOM      4  H9  UNK     1      40.621  37.970  27.730  1.00  0.00     0.163 HD
ENDROOT
BRANCH   1   5
ATOM      5  C2  UNK     1      41.289  37.654  25.771  1.00  0.00     0.181 C 
ATOM      6  C1  UNK     1      40.964  38.938  25.010  1.00  0.00     0.075 C 
ATOM      7  C9  UNK     1      42.049  39.264  24.016  1.00  0.00    -0.029 A 
ATOM      8  C4  UNK     1      43.377  38.925  24.305  1.00  0.00     0.041 A 
ATOM      9  C8  UNK     1      41.764  39.986  22.852  1.00  0.00     0.009 A 
ATOM     10  N1  UNK     1      43.676  38.227  25.479  1.00  0.00    -0.325 N 
ATOM     11  C5  UNK     1      44.409  39.308  23.450  1.00  0.00     0.030 A 
ATOM     12  C3  UNK     1      42.726  37.696  26.310  1.00  0.00     0.245 C 
ATOM     13  H4  UNK     1      44.638  38.128  25.777  1.00  0.00     0.169 HD
ATOM     14  O1  UNK     1      43.035  37.203  27.396  1.00  0.00    -0.271 OA
ATOM     15  C6  UNK     1      44.115  40.016  22.284  1.00  0.00     0.002 A 
ATOM     16  C7  UNK     1      42.795  40.352  21.984  1.00  0.00     0.001 A 
ENDBRANCH   1   5
BRANCH   2  17
ATOM     17  C11 UNK     1      39.097  36.050  28.356  1.00  0.00     0.102 A 
ATOM     18  C12 UNK     1      39.203  36.855  29.479  1.00  0.00     0.049 A 
ATOM     19  C13 UNK     1      38.342  36.347  30.487  1.00  0.00    -0.007 A 
ATOM     20  C14 UNK     1      38.028  36.741  31.801  1.00  0.00     0.014 A 
ATOM     21  C18 UNK     1      37.727  35.213  29.961  1.00  0.00     0.043 A 
ATOM     22  C15 UNK     1      37.110  35.987  32.541  1.00  0.00     0.001 A 
ATOM     23  C16 UNK     1      36.511  34.857  31.990  1.00  0.00     0.002 A 
ATOM     24  C17 UNK     1      36.809  34.444  30.687  1.00  0.00     0.030 A 
ATOM     25  N3  UNK     1      38.209  35.049  28.683  1.00  0.00    -0.351 N 
ATOM     26  H15 UNK     1      37.959  34.278  28.081  1.00  0.00     0.166 HD
ENDBRANCH   2  17
TORSDOF 2
ENDMDL
MODEL 2
REMARK VINA RESULT:      -8.3      1.146      8.576
REMARK  2 active torsions:
REMARK  status: ('A' for Active; 'I' for Inactive)
REMARK    1  A    between atoms: C2_2  and  N2_12 
REMARK       I    between atoms: N2_12  and  C10_13 
REMARK    2  A    between atoms: C10_13  and  C11_15 
ROOT
ATOM      1  N2  UNK     1      40.510  36.362  27.442  1.00  0.00    -0.342 N 
ATOM      2  C10 UNK     1      41.813  36.728  27.693  1.00  0.00     0.269 C 
ATOM      3  O2  UNK     1      42.344  36.527  28.781  1.00  0.00    -0.266 OA
ATOM      4  H9  UNK     1      40.239  36.207  26.479  1.00  0.00     0.163 HD
ENDROOT
BRANCH   1   5
ATOM      5  C2  UNK     1      39.745  35.583  28.416  1.00  0.00     0.181 C 
ATOM      6  C1  UNK     1      38.961  36.450  29.400  1.00  0.00     0.075 C 
ATOM      7  C9  UNK     1      38.002  35.614  30.207  1.00  0.00    -0.029 A 
ATOM      8  C4  UNK     1      37.411  34.484  29.628  1.00  0.00     0.041 A 
ATOM      9  C8  UNK     1      37.617  36.003  31.495  1.00  0.00     0.009 A 
ATOM     10  N1  UNK     1      37.768  34.101  28.331  1.00  0.00    -0.325 N 
ATOM     11  C5  UNK     1      36.444  33.755  30.318  1.00  0.00     0.030 A 
ATOM     12  C3  UNK     1      38.796  34.669  27.628  1.00  0.00     0.245 C 
ATOM     13  H4  UNK     1      37.229  33.395  27.847  1.00  0.00     0.169 HD
ATOM     14  O1  UNK     1      38.988  34.387  26.443  1.00  0.00    -0.271 OA
ATOM     15  C6  UNK     1      36.076  34.143  31.608  1.00  0.00     0.002 A 
ATOM     16  C7  UNK     1      36.664  35.262  32.196  1.00  0.00     0.001 A 
ENDBRANCH   1   5
BRANCH   2  17
ATOM     17  C11 UNK     1      42.500  37.338  26.575  1.00  0.00     0.102 A 
ATOM     18  C12 UNK     1      42.061  38.393  25.791  1.00  0.00     0.049 A 
ATOM     19  C13 UNK     1      43.043  38.663  24.801  1.00  0.00    -0.007 A 
ATOM     20  C14 UNK     1      43.153  39.603  23.758  1.00  0.00     0.014 A 
ATOM     21  C18 UNK     1      44.072  37.744  24.988  1.00  0.00     0.043 A 
ATOM     22  C15 UNK     1      44.289  39.587  22.941  1.00  0.00     0.001 A 
ATOM     23  C16 UNK     1      45.303  38.655  23.151  1.00  0.00     0.002 A 
ATOM     24  C17 UNK     1      45.215  37.712  24.179  1.00  0.00     0.030 A 
ATOM     25  N3  UNK     1      43.714  36.950  26.053  1.00  0.00    -0.351 N 
ATOM     26  H15 UNK     1      44.264  36.170  26.384  1.00  0.00     0.166 HD
ENDBRANCH   2  17
TORSDOF 2
ENDMDL
MODEL 3
REMARK VINA RESULT:      -8.2      1.902      2.495
REMARK  2 active torsions:
REMARK  status: ('A' for Active; 'I' for Inactive)
REMARK    1  A    between atoms: C2_2  and  N2_12 
REMARK       I    between atoms: N2_12  and  C10_13 
REMARK    2  A    between atoms: C10_13  and  C11_15 
ROOT
ATOM      1  N2  UNK     1      39.514  37.955  27.471  1.00  0.00    -0.342 N 
ATOM      2  C10 UNK     1      40.022  37.362  28.605  1.00  0.00     0.269 C 
ATOM      3  O2  UNK     1      41.192  37.508  28.943  1.00  0.00    -0.266 OA
ATOM      4  H9  UNK     1      38.515  38.115  27.427  1.00  0.00     0.163 HD
ENDROOT
BRANCH   1   5
ATOM      5  C2  UNK     1      40.310  38.907  26.697  1.00  0.00     0.181 C 
ATOM      6  C1  UNK     1      40.570  38.450  25.262  1.00  0.00     0.075 C 
ATOM      7  C9  UNK     1      41.166  39.565  24.442  1.00  0.00    -0.029 A 
ATOM      8  C4  UNK     1      40.808  40.891  24.712  1.00  0.00     0.041 A 
ATOM      9  C8  UNK     1      41.999  39.289  23.352  1.00  0.00     0.009 A 
ATOM     10  N1  UNK     1      39.954  41.176  25.783  1.00  0.00    -0.325 N 
ATOM     11  C5  UNK     1      41.264  41.930  23.902  1.00  0.00     0.030 A 
ATOM     12  C3  UNK     1      39.561  40.248  26.709  1.00  0.00     0.245 C 
ATOM     13  H4  UNK     1      39.558  42.103  25.881  1.00  0.00     0.169 HD
ATOM     14  O1  UNK     1      38.708  40.516  27.557  1.00  0.00    -0.271 OA
ATOM     15  C6  UNK     1      42.106  41.647  22.825  1.00  0.00     0.002 A 
ATOM     16  C7  UNK     1      42.475  40.330  22.553  1.00  0.00     0.001 A 
ENDBRANCH   1   5
BRANCH   2  17
ATOM     17  C11 UNK     1      39.068  36.584  29.364  1.00  0.00     0.102 A 
ATOM     18  C12 UNK     1      38.605  36.834  30.647  1.00  0.00     0.049 A 
ATOM     19  C13 UNK     1      37.687  35.812  31.006  1.00  0.00    -0.007 A 
ATOM     20  C14 UNK     1      36.910  35.549  32.151  1.00  0.00     0.014 A 
ATOM     21  C18 UNK     1      37.615  34.932  29.930  1.00  0.00     0.043 A 
ATOM     22  C15 UNK     1      36.090  34.415  32.175  1.00  0.00     0.001 A 
ATOM     23  C16 UNK     1      36.039  33.552  31.083  1.00  0.00     0.002 A 
ATOM     24  C17 UNK     1      36.803  33.792  29.937  1.00  0.00     0.030 A 
ATOM     25  N3  UNK     1      38.465  35.412  28.960  1.00  0.00    -0.351 N 
ATOM     26  H15 UNK     1      38.639  34.945  28.082  1.00  0.00     0.166 HD
ENDBRANCH   2  17
TORSDOF 2
ENDMDL
MODEL 4
REMARK VINA RESULT:      -7.4      1.905      8.573
REMARK  2 active torsions:
REMARK  status: ('A' for Active; 'I' for Inactive)
REMARK    1  A    between atoms: C2_2  and  N2_12 
REMARK       I    between atoms: N2_12  and  C10_13 
REMARK    2  A    between atoms: C10_13  and  C11_15 
ROOT
ATOM      1  N2  UNK     1      40.551  38.087  27.678  1.00  0.00    -0.342 N 
ATOM      2  C10 UNK     1      40.352  38.984  26.654  1.00  0.00     0.269 C 
ATOM      3  O2  UNK     1      39.332  39.660  26.575  1.00  0.00    -0.266 OA
ATOM      4  H9  UNK     1      41.504  37.836  27.911  1.00  0.00     0.163 HD
ENDROOT
BRANCH   1   5
ATOM      5  C2  UNK     1      39.617  38.005  28.802  1.00  0.00     0.181 C 
ATOM      6  C1  UNK     1      39.243  36.571  29.174  1.00  0.00     0.075 C 
ATOM      7  C9  UNK     1      38.493  36.532  30.480  1.00  0.00    -0.029 A 
ATOM      8  C4  UNK     1      38.787  37.471  31.476  1.00  0.00     0.041 A 
ATOM      9  C8  UNK     1      37.574  35.512  30.749  1.00  0.00     0.009 A 
ATOM     10  N1  UNK     1      39.723  38.479  31.226  1.00  0.00    -0.325 N 
ATOM     11  C5  UNK     1      38.180  37.392  32.728  1.00  0.00     0.030 A 
ATOM     12  C3  UNK     1      40.271  38.719  29.994  1.00  0.00     0.245 C 
ATOM     13  H4  UNK     1      40.064  39.052  31.987  1.00  0.00     0.169 HD
ATOM     14  O1  UNK     1      41.186  39.532  29.852  1.00  0.00    -0.271 OA
ATOM     15  C6  UNK     1      37.254  36.379  32.984  1.00  0.00     0.002 A 
ATOM     16  C7  UNK     1      36.949  35.444  31.996  1.00  0.00     0.001 A 
ENDBRANCH   1   5
BRANCH   2  17
ATOM     17  C11 UNK     1      41.442  39.077  25.707  1.00  0.00     0.102 A 
ATOM     18  C12 UNK     1      42.663  38.423  25.759  1.00  0.00     0.049 A 
ATOM     19  C13 UNK     1      43.435  38.811  24.633  1.00  0.00    -0.007 A 
ATOM     20  C14 UNK     1      44.719  38.477  24.161  1.00  0.00     0.014 A 
ATOM     21  C18 UNK     1      42.670  39.723  23.909  1.00  0.00     0.043 A 
ATOM     22  C15 UNK     1      45.189  39.066  22.981  1.00  0.00     0.001 A 
ATOM     23  C16 UNK     1      44.401  39.975  22.279  1.00  0.00     0.002 A 
ATOM     24  C17 UNK     1      43.125  40.324  22.730  1.00  0.00     0.030 A 
ATOM     25  N3  UNK     1      41.481  39.875  24.584  1.00  0.00    -0.351 N 
ATOM     26  H15 UNK     1      40.750  40.511  24.300  1.00  0.00     0.166 HD
ENDBRANCH   2  17
TORSDOF 2
ENDMDL
MODEL 5
REMARK VINA RESULT:      -7.3      1.539      8.493
REMARK  2 active torsions:
REMARK  status: ('A' for Active; 'I' for Inactive)
REMARK    1  A    between atoms: C2_2  and  N2_12 
REMARK       I    between atoms: N2_12  and  C10_13 
REMARK    2  A    between atoms: C10_13  and  C11_15 
ROOT
ATOM      1  N2  UNK     1      40.168  37.320  28.201  1.00  0.00    -0.342 N 
ATOM      2  C10 UNK     1      40.084  37.102  26.845  1.00  0.00     0.269 C 
ATOM      3  O2  UNK     1      39.120  36.535  26.339  1.00  0.00    -0.266 OA
ATOM      4  H9  UNK     1      40.758  38.078  28.524  1.00  0.00     0.163 HD
ENDROOT
BRANCH   1   5
ATOM      5  C2  UNK     1      39.042  37.018  29.086  1.00  0.00     0.181 C 
ATOM      6  C1  UNK     1      38.713  35.527  29.155  1.00  0.00     0.075 C 
ATOM      7  C9  UNK     1      37.727  35.244  30.260  1.00  0.00    -0.029 A 
ATOM      8  C4  UNK     1      37.750  36.023  31.423  1.00  0.00     0.041 A 
ATOM      9  C8  UNK     1      36.854  34.155  30.181  1.00  0.00     0.009 A 
ATOM     10  N1  UNK     1      38.638  37.099  31.523  1.00  0.00    -0.325 N 
ATOM     11  C5  UNK     1      36.919  35.716  32.499  1.00  0.00     0.030 A 
ATOM     12  C3  UNK     1      39.395  37.558  30.479  1.00  0.00     0.245 C 
ATOM     13  H4  UNK     1      38.779  37.556  32.415  1.00  0.00     0.169 HD
ATOM     14  O1  UNK     1      40.256  38.423  30.649  1.00  0.00    -0.271 OA
ATOM     15  C6  UNK     1      36.040  34.635  32.407  1.00  0.00     0.002 A 
ATOM     16  C7  UNK     1      36.005  33.858  31.250  1.00  0.00     0.001 A 
ENDBRANCH   1   5
BRANCH   2  17
ATOM     17  C11 UNK     1      41.199  37.609  26.077  1.00  0.00     0.102 A 
ATOM     18  C12 UNK     1      41.168  38.571  25.079  1.00  0.00     0.049 A 
ATOM     19  C13 UNK     1      42.486  38.759  24.587  1.00  0.00    -0.007 A 
ATOM     20  C14 UNK     1      43.058  39.589  23.604  1.00  0.00     0.014 A 
ATOM     21  C18 UNK     1      43.312  37.885  25.290  1.00  0.00     0.043 A 
ATOM     22  C15 UNK     1      44.435  39.514  23.362  1.00  0.00     0.001 A 
ATOM     23  C16 UNK     1      45.235  38.629  24.080  1.00  0.00     0.002 A 
ATOM     24  C17 UNK     1      44.689  37.794  25.059  1.00  0.00     0.030 A 
ATOM     25  N3  UNK     1      42.510  37.195  26.171  1.00  0.00    -0.351 N 
ATOM     26  H15 UNK     1      42.844  36.465  26.782  1.00  0.00     0.166 HD
ENDBRANCH   2  17
TORSDOF 2
ENDMDL
MODEL 6
REMARK VINA RESULT:      -7.2      1.702      2.574
REMARK  2 active torsions:
REMARK  status: ('A' for Active; 'I' for Inactive)
REMARK    1  A    between atoms: C2_2  and  N2_12 
REMARK       I    between atoms: N2_12  and  C10_13 
REMARK    2  A    between atoms: C10_13  and  C11_15 
ROOT
ATOM      1  N2  UNK     1      41.438  37.948  26.325  1.00  0.00    -0.342 N 
ATOM      2  C10 UNK     1      41.029  38.349  27.577  1.00  0.00     0.269 C 
ATOM      3  O2  UNK     1      41.405  39.406  28.072  1.00  0.00    -0.266 OA
ATOM      4  H9  UNK     1      40.849  37.296  25.820  1.00  0.00     0.163 HD
ENDROOT
BRANCH   1   5
ATOM      5  C2  UNK     1      42.222  38.837  25.467  1.00  0.00     0.181 C 
ATOM      6  C1  UNK     1      43.540  38.219  25.003  1.00  0.00     0.075 C 
ATOM      7  C9  UNK     1      44.182  39.062  23.931  1.00  0.00    -0.029 A 
ATOM      8  C4  UNK     1      43.375  39.774  23.034  1.00  0.00     0.041 A 
ATOM      9  C8  UNK     1      45.570  39.068  23.757  1.00  0.00     0.009 A 
ATOM     10  N1  UNK     1      41.985  39.752  23.183  1.00  0.00    -0.325 N 
ATOM     11  C5  UNK     1      43.942  40.476  21.972  1.00  0.00     0.030 A 
ATOM     12  C3  UNK     1      41.344  39.204  24.262  1.00  0.00     0.245 C 
ATOM     13  H4  UNK     1      41.392  40.119  22.448  1.00  0.00     0.169 HD
ATOM     14  O1  UNK     1      40.117  39.094  24.285  1.00  0.00    -0.271 OA
ATOM     15  C6  UNK     1      45.329  40.489  21.814  1.00  0.00     0.002 A 
ATOM     16  C7  UNK     1      46.141  39.789  22.706  1.00  0.00     0.001 A 
ENDBRANCH   1   5
BRANCH   2  17
ATOM     17  C11 UNK     1      40.116  37.442  28.237  1.00  0.00     0.102 A 
ATOM     18  C12 UNK     1      39.589  37.557  29.514  1.00  0.00     0.049 A 
ATOM     19  C13 UNK     1      38.746  36.442  29.761  1.00  0.00    -0.007 A 
ATOM     20  C14 UNK     1      37.954  36.032  30.851  1.00  0.00     0.014 A 
ATOM     21  C18 UNK     1      38.786  35.642  28.622  1.00  0.00     0.043 A 
ATOM     22  C15 UNK     1      37.230  34.837  30.759  1.00  0.00     0.001 A 
ATOM     23  C16 UNK     1      37.290  34.057  29.607  1.00  0.00     0.002 A 
ATOM     24  C17 UNK     1      38.071  34.443  28.514  1.00  0.00     0.030 A 
ATOM     25  N3  UNK     1      39.628  36.259  27.725  1.00  0.00    -0.351 N 
ATOM     26  H15 UNK     1      39.871  35.875  26.824  1.00  0.00     0.166 HD
ENDBRANCH   2  17
TORSDOF 2
ENDMDL
MODEL 7
REMARK VINA RESULT:      -7.2      1.583      1.964
REMARK  2 active torsions:
REMARK  status: ('A' for Active; 'I' for Inactive)
REMARK    1  A    between atoms: C2_2  and  N2_12 
REMARK       I    between atoms: N2_12  and  C10_13 
REMARK    2  A    between atoms: C10_13  and  C11_15 
ROOT
ATOM      1  N2  UNK     1      40.911  38.038  28.319  1.00  0.00    -0.342 N 
ATOM      2  C10 UNK     1      40.163  36.886  28.235  1.00  0.00     0.269 C 
ATOM      3  O2  UNK     1      40.220  36.147  27.257  1.00  0.00    -0.266 OA
ATOM      4  H9  UNK     1      41.115  38.405  29.241  1.00  0.00     0.163 HD
ENDROOT
BRANCH   1   5
ATOM      5  C2  UNK     1      41.921  38.357  27.310  1.00  0.00     0.181 C 
ATOM      6  C1  UNK     1      41.391  39.248  26.187  1.00  0.00     0.075 C 
ATOM      7  C9  UNK     1      42.518  39.752  25.322  1.00  0.00    -0.029 A 
ATOM      8  C4  UNK     1      43.772  39.998  25.893  1.00  0.00     0.041 A 
ATOM      9  C8  UNK     1      42.304  40.068  23.976  1.00  0.00     0.009 A 
ATOM     10  N1  UNK     1      43.989  39.709  27.244  1.00  0.00    -0.325 N 
ATOM     11  C5  UNK     1      44.799  40.560  25.137  1.00  0.00     0.030 A 
ATOM     12  C3  UNK     1      43.093  39.038  28.031  1.00  0.00     0.245 C 
ATOM     13  H4  UNK     1      44.830  40.038  27.702  1.00  0.00     0.169 HD
ATOM     14  O1  UNK     1      43.273  38.923  29.245  1.00  0.00    -0.271 OA
ATOM     15  C6  UNK     1      44.581  40.860  23.791  1.00  0.00     0.002 A 
ATOM     16  C7  UNK     1      43.338  40.612  23.212  1.00  0.00     0.001 A 
ENDBRANCH   1   5
BRANCH   2  17
ATOM     17  C11 UNK     1      39.334  36.613  29.389  1.00  0.00     0.102 A 
ATOM     18  C12 UNK     1      38.389  35.609  29.530  1.00  0.00     0.049 A 
ATOM     19  C13 UNK     1      37.804  35.713  30.819  1.00  0.00    -0.007 A 
ATOM     20  C14 UNK     1      36.820  34.983  31.513  1.00  0.00     0.014 A 
ATOM     21  C18 UNK     1      38.396  36.806  31.448  1.00  0.00     0.043 A 
ATOM     22  C15 UNK     1      36.466  35.372  32.810  1.00  0.00     0.001 A 
ATOM     23  C16 UNK     1      37.075  36.470  33.413  1.00  0.00     0.002 A 
ATOM     24  C17 UNK     1      38.053  37.212  32.743  1.00  0.00     0.030 A 
ATOM     25  N3  UNK     1      39.304  37.338  30.561  1.00  0.00    -0.351 N 
ATOM     26  H15 UNK     1      39.851  38.166  30.743  1.00  0.00     0.166 HD
ENDBRANCH   2  17
TORSDOF 2
ENDMDL
MODEL 8
REMARK VINA RESULT:      -7.0      1.374      2.048
REMARK  2 active torsions:
REMARK  status: ('A' for Active; 'I' for Inactive)
REMARK    1  A    between atoms: C2_2  and  N2_12 
REMARK       I    between atoms: N2_12  and  C10_13 
REMARK    2  A    between atoms: C10_13  and  C11_15 
ROOT
ATOM      1  N2  UNK     1      41.932  37.824  26.357  1.00  0.00    -0.342 N 
ATOM      2  C10 UNK     1      40.702  37.224  26.211  1.00  0.00     0.269 C 
ATOM      3  O2  UNK     1      40.252  36.931  25.108  1.00  0.00    -0.266 OA
ATOM      4  H9  UNK     1      42.410  37.715  27.244  1.00  0.00     0.163 HD
ENDROOT
BRANCH   1   5
ATOM      5  C2  UNK     1      42.824  38.006  25.212  1.00  0.00     0.181 C 
ATOM      6  C1  UNK     1      42.521  39.269  24.406  1.00  0.00     0.075 C 
ATOM      7  C9  UNK     1      43.613  39.542  23.404  1.00  0.00    -0.029 A 
ATOM      8  C4  UNK     1      44.934  39.190  23.706  1.00  0.00     0.041 A 
ATOM      9  C8  UNK     1      43.342  40.228  22.216  1.00  0.00     0.009 A 
ATOM     10  N1  UNK     1      45.221  38.527  24.904  1.00  0.00    -0.325 N 
ATOM     11  C5  UNK     1      45.974  39.525  22.841  1.00  0.00     0.030 A 
ATOM     12  C3  UNK     1      44.261  38.041  25.751  1.00  0.00     0.245 C 
ATOM     13  H4  UNK     1      46.181  38.422  25.206  1.00  0.00     0.169 HD
ATOM     14  O1  UNK     1      44.560  37.581  26.854  1.00  0.00    -0.271 OA
ATOM     15  C6  UNK     1      45.693  40.198  21.650  1.00  0.00     0.002 A 
ATOM     16  C7  UNK     1      44.380  40.546  21.337  1.00  0.00     0.001 A 
ENDBRANCH   1   5
BRANCH   2  17
ATOM     17  C11 UNK     1      40.006  36.952  27.450  1.00  0.00     0.102 A 
ATOM     18  C12 UNK     1      39.216  35.853  27.749  1.00  0.00     0.049 A 
ATOM     19  C13 UNK     1      38.722  35.995  29.073  1.00  0.00    -0.007 A 
ATOM     20  C14 UNK     1      37.899  35.210  29.903  1.00  0.00     0.014 A 
ATOM     21  C18 UNK     1      39.210  37.204  29.561  1.00  0.00     0.043 A 
ATOM     22  C15 UNK     1      37.596  35.664  31.192  1.00  0.00     0.001 A 
ATOM     23  C16 UNK     1      38.098  36.879  31.654  1.00  0.00     0.002 A 
ATOM     24  C17 UNK     1      38.915  37.676  30.846  1.00  0.00     0.030 A 
ATOM     25  N3  UNK     1      39.969  37.766  28.560  1.00  0.00    -0.351 N 
ATOM     26  H15 UNK     1      40.414  38.670  28.630  1.00  0.00     0.166 HD
ENDBRANCH   2  17
TORSDOF 2
ENDMDL
MODEL 9
REMARK VINA RESULT:      -6.9      4.187      6.446
REMARK  2 active torsions:
REMARK  status: ('A' for Active; 'I' for Inactive)
REMARK    1  A    between atoms: C2_2  and  N2_12 
REMARK       I    between atoms: N2_12  and  C10_13 
REMARK    2  A    between atoms: C10_13  and  C11_15 
ROOT
ATOM      1  N2  UNK     1      39.819  36.834  29.533  1.00  0.00    -0.342 N 
ATOM      2  C10 UNK     1      41.020  37.380  29.925  1.00  0.00     0.269 C 
ATOM      3  O2  UNK     1      42.087  37.009  29.446  1.00  0.00    -0.266 OA
ATOM      4  H9  UNK     1      38.982  37.389  29.662  1.00  0.00     0.163 HD
ENDROOT
BRANCH   1   5
ATOM      5  C2  UNK     1      39.748  35.889  28.419  1.00  0.00     0.181 C 
ATOM      6  C1  UNK     1      38.817  34.708  28.687  1.00  0.00     0.075 C 
ATOM      7  C9  UNK     1      38.583  33.910  27.430  1.00  0.00    -0.029 A 
ATOM      8  C4  UNK     1      38.568  34.561  26.190  1.00  0.00     0.041 A 
ATOM      9  C8  UNK     1      38.285  32.545  27.491  1.00  0.00     0.009 A 
ATOM     10  N1  UNK     1      38.838  35.931  26.121  1.00  0.00    -0.325 N 
ATOM     11  C5  UNK     1      38.252  33.863  25.026  1.00  0.00     0.030 A 
ATOM     12  C3  UNK     1      39.285  36.672  27.182  1.00  0.00     0.245 C 
ATOM     13  H4  UNK     1      38.664  36.437  25.262  1.00  0.00     0.169 HD
ATOM     14  O1  UNK     1      39.384  37.898  27.105  1.00  0.00    -0.271 OA
ATOM     15  C6  UNK     1      37.969  32.497  25.094  1.00  0.00     0.002 A 
ATOM     16  C7  UNK     1      37.989  31.839  26.323  1.00  0.00     0.001 A 
ENDBRANCH   1   5
BRANCH   2  17
ATOM     17  C11 UNK     1      40.917  38.427  30.918  1.00  0.00     0.102 A 
ATOM     18  C12 UNK     1      39.910  39.371  31.047  1.00  0.00     0.049 A 
ATOM     19  C13 UNK     1      40.213  40.211  32.150  1.00  0.00    -0.007 A 
ATOM     20  C14 UNK     1      39.570  41.310  32.753  1.00  0.00     0.014 A 
ATOM     21  C18 UNK     1      41.426  39.773  32.675  1.00  0.00     0.043 A 
ATOM     22  C15 UNK     1      40.166  41.929  33.858  1.00  0.00     0.001 A 
ATOM     23  C16 UNK     1      41.381  41.469  34.360  1.00  0.00     0.002 A 
ATOM     24  C17 UNK     1      42.039  40.382  33.777  1.00  0.00     0.030 A 
ATOM     25  N3  UNK     1      41.835  38.707  31.907  1.00  0.00    -0.351 N 
ATOM     26  H15 UNK     1      42.708  38.218  32.041  1.00  0.00     0.166 HD
ENDBRANCH   2  17
TORSDOF 2
ENDMDL
MODEL 10
REMARK VINA RESULT:      -6.9      1.574      8.571
REMARK  2 active torsions:
REMARK  status: ('A' for Active; 'I' for Inactive)
REMARK    1  A    between atoms: C2_2  and  N2_12 
REMARK       I    between atoms: N2_12  and  C10_13 
REMARK    2  A    between atoms: C10_13  and  C11_15 
ROOT
ATOM      1  N2  UNK     1      41.329  37.903  26.302  1.00  0.00    -0.342 N 
ATOM      2  C10 UNK     1      41.202  38.111  24.948  1.00  0.00     0.269 C 
ATOM      3  O2  UNK     1      40.181  37.807  24.339  1.00  0.00    -0.266 OA
ATOM      4  H9  UNK     1      41.993  38.476  26.809  1.00  0.00     0.163 HD
ENDROOT
BRANCH   1   5
ATOM      5  C2  UNK     1      40.194  37.446  27.105  1.00  0.00     0.181 C 
ATOM      6  C1  UNK     1      40.108  35.924  27.216  1.00  0.00     0.075 C 
ATOM      7  C9  UNK     1      39.089  35.517  28.249  1.00  0.00    -0.029 A 
ATOM      8  C4  UNK     1      38.881  36.325  29.373  1.00  0.00     0.041 A 
ATOM      9  C8  UNK     1      38.415  34.295  28.150  1.00  0.00     0.009 A 
ATOM     10  N1  UNK     1      39.569  37.537  29.495  1.00  0.00    -0.325 N 
ATOM     11  C5  UNK     1      38.020  35.919  30.391  1.00  0.00     0.030 A 
ATOM     12  C3  UNK     1      40.330  38.082  28.496  1.00  0.00     0.245 C 
ATOM     13  H4  UNK     1      39.555  38.040  30.373  1.00  0.00     0.169 HD
ATOM     14  O1  UNK     1      41.020  39.083  28.696  1.00  0.00    -0.271 OA
ATOM     15  C6  UNK     1      37.341  34.704  30.278  1.00  0.00     0.002 A 
ATOM     16  C7  UNK     1      37.536  33.896  29.158  1.00  0.00     0.001 A 
ENDBRANCH   1   5
BRANCH   2  17
ATOM     17  C11 UNK     1      42.347  38.729  24.317  1.00  0.00     0.102 A 
ATOM     18  C12 UNK     1      42.344  39.715  23.342  1.00  0.00     0.049 A 
ATOM     19  C13 UNK     1      43.688  40.023  23.002  1.00  0.00    -0.007 A 
ATOM     20  C14 UNK     1      44.291  40.926  22.106  1.00  0.00     0.014 A 
ATOM     21  C18 UNK     1      44.502  39.196  23.772  1.00  0.00     0.043 A 
ATOM     22  C15 UNK     1      45.687  40.968  22.014  1.00  0.00     0.001 A 
ATOM     23  C16 UNK     1      46.476  40.129  22.796  1.00  0.00     0.002 A 
ATOM     24  C17 UNK     1      45.900  39.223  23.691  1.00  0.00     0.030 A 
ATOM     25  N3  UNK     1      43.670  38.419  24.545  1.00  0.00    -0.351 N 
ATOM     26  H15 UNK     1      43.996  37.699  25.173  1.00  0.00     0.166 HD
ENDBRANCH   2  17
TORSDOF 2
ENDMDL
