MODEL 1
REMARK VINA RESULT:      -9.6      0.000      0.000
REMARK  4 active torsions:
REMARK  status: ('A' for Active; 'I' for Inactive)
REMARK       I    between atoms: N1_9  and  C10_11 
REMARK    1  A    between atoms: C10_11  and  C11_13 
REMARK    2  A    between atoms: C11_13  and  C12_14 
REMARK    3  A    between atoms: C11_13  and  N2_20 
REMARK       I    between atoms: N2_20  and  C18_21 
REMARK    4  A    between atoms: C18_21  and  C19_23 
ROOT
ATOM      1  C11 UNK     1      40.871  37.758  28.209  1.00  0.00     0.211 C 
ENDROOT
BRANCH   1   2
ATOM      2  C10 UNK     1      39.575  36.953  28.527  1.00  0.00     0.251 C 
ATOM      3  N1  UNK     1      39.106  36.954  29.858  1.00  0.00    -0.315 N 
ATOM      4  C8  UNK     1      38.136  35.996  30.349  1.00  0.00     0.043 A 
ATOM      5  C9  UNK     1      39.647  37.894  30.851  1.00  0.00     0.132 C 
ATOM      6  C3  UNK     1      37.607  36.124  31.655  1.00  0.00    -0.031 A 
ATOM      7  C7  UNK     1      37.707  34.895  29.590  1.00  0.00     0.030 A 
ATOM      8  C2  UNK     1      38.020  37.236  32.583  1.00  0.00     0.042 C 
ATOM      9  C4  UNK     1      36.690  35.179  32.153  1.00  0.00     0.009 A 
ATOM     10  C1  UNK     1      38.589  38.404  31.810  1.00  0.00     0.025 C 
ATOM     11  C5  UNK     1      36.275  34.108  31.371  1.00  0.00     0.001 A 
ATOM     12  C6  UNK     1      36.785  33.966  30.090  1.00  0.00     0.002 A 
ATOM     13  O1  UNK     1      39.015  36.369  27.588  1.00  0.00    -0.270 OA
ENDBRANCH   1   2
BRANCH   1  14
ATOM     14  C12 UNK     1      40.849  38.443  26.850  1.00  0.00    -0.026 A 
ATOM     15  C13 UNK     1      41.691  38.050  25.797  1.00  0.00     0.010 A 
ATOM     16  C14 UNK     1      41.649  38.713  24.568  1.00  0.00     0.001 A 
ATOM     17  C15 UNK     1      40.779  39.785  24.379  1.00  0.00     0.000 A 
ATOM     18  C16 UNK     1      39.954  40.202  25.421  1.00  0.00     0.001 A 
ATOM     19  C17 UNK     1      39.994  39.540  26.649  1.00  0.00     0.010 A 
ENDBRANCH   1  14
BRANCH   1  20
ATOM     20  N2  UNK     1      41.981  36.817  28.249  1.00  0.00    -0.338 N 
ATOM     21  C18 UNK     1      43.061  36.976  29.070  1.00  0.00     0.269 C 
ATOM     22  O2  UNK     1      43.178  37.935  29.828  1.00  0.00    -0.266 OA
ATOM     23  H17 UNK     1      41.890  35.999  27.661  1.00  0.00     0.164 HD
BRANCH  21  24
ATOM     24  C19 UNK     1      44.057  35.931  28.994  1.00  0.00     0.102 A 
ATOM     25  C20 UNK     1      44.758  35.233  29.964  1.00  0.00     0.049 A 
ATOM     26  C21 UNK     1      45.621  34.305  29.315  1.00  0.00    -0.007 A 
ATOM     27  C22 UNK     1      46.550  33.350  29.768  1.00  0.00     0.014 A 
ATOM     28  C26 UNK     1      45.428  34.455  27.944  1.00  0.00     0.043 A 
ATOM     29  C23 UNK     1      47.252  32.580  28.833  1.00  0.00     0.001 A 
ATOM     30  C24 UNK     1      47.038  32.751  27.467  1.00  0.00     0.002 A 
ATOM     31  C25 UNK     1      46.119  33.695  26.994  1.00  0.00     0.030 A 
ATOM     32  N3  UNK     1      44.482  35.437  27.779  1.00  0.00    -0.351 N 
ATOM     33  H23 UNK     1      44.132  35.769  26.890  1.00  0.00     0.166 HD
ENDBRANCH  21  24
ENDBRANCH   1  20
TORSDOF 4
ENDMDL
MODEL 2
REMARK VINA RESULT:      -8.8      2.337      3.553
REMARK  4 active torsions:
REMARK  status: ('A' for Active; 'I' for Inactive)
REMARK       I    between atoms: N1_9  and  C10_11 
REMARK    1  A    between atoms: C10_11  and  C11_13 
REMARK    2  A    between atoms: C11_13  and  C12_14 
REMARK    3  A    between atoms: C11_13  and  N2_20 
REMARK       I    between atoms: N2_20  and  C18_21 
REMARK    4  A    between atoms: C18_21  and  C19_23 
ROOT
ATOM      1  C11 UNK     1      39.148  35.489  27.885  1.00  0.00     0.211 C 
ENDROOT
BRANCH   1   2
ATOM      2  C10 UNK     1      38.205  35.523  29.126  1.00  0.00     0.251 C 
ATOM      3  N1  UNK     1      38.503  36.440  30.156  1.00  0.00    -0.315 N 
ATOM      4  C8  UNK     1      37.928  36.345  31.483  1.00  0.00     0.043 A 
ATOM      5  C9  UNK     1      39.489  37.513  29.954  1.00  0.00     0.132 C 
ATOM      6  C3  UNK     1      38.161  37.364  32.435  1.00  0.00    -0.031 A 
ATOM      7  C7  UNK     1      37.158  35.246  31.898  1.00  0.00     0.030 A 
ATOM      8  C2  UNK     1      39.005  38.573  32.127  1.00  0.00     0.042 C 
ATOM      9  C4  UNK     1      37.636  37.263  33.738  1.00  0.00     0.009 A 
ATOM     10  C1  UNK     1      39.092  38.808  30.637  1.00  0.00     0.025 C 
ATOM     11  C5  UNK     1      36.867  36.169  34.112  1.00  0.00     0.001 A 
ATOM     12  C6  UNK     1      36.629  35.159  33.191  1.00  0.00     0.002 A 
ATOM     13  O1  UNK     1      37.234  34.754  29.133  1.00  0.00    -0.270 OA
ENDBRANCH   1   2
BRANCH   1  14
ATOM     14  C12 UNK     1      38.901  34.304  26.961  1.00  0.00    -0.026 A 
ATOM     15  C13 UNK     1      38.543  33.036  27.443  1.00  0.00     0.010 A 
ATOM     16  C14 UNK     1      38.338  31.971  26.562  1.00  0.00     0.001 A 
ATOM     17  C15 UNK     1      38.502  32.156  25.191  1.00  0.00     0.000 A 
ATOM     18  C16 UNK     1      38.879  33.402  24.697  1.00  0.00     0.001 A 
ATOM     19  C17 UNK     1      39.084  34.467  25.576  1.00  0.00     0.010 A 
ENDBRANCH   1  14
BRANCH   1  20
ATOM     20  N2  UNK     1      40.514  35.422  28.386  1.00  0.00    -0.338 N 
ATOM     21  C18 UNK     1      41.543  36.130  27.833  1.00  0.00     0.269 C 
ATOM     22  O2  UNK     1      41.390  36.866  26.862  1.00  0.00    -0.266 OA
ATOM     23  H17 UNK     1      40.657  34.852  29.210  1.00  0.00     0.164 HD
BRANCH  21  24
ATOM     24  C19 UNK     1      42.827  35.961  28.475  1.00  0.00     0.102 A 
ATOM     25  C20 UNK     1      43.232  36.048  29.797  1.00  0.00     0.049 A 
ATOM     26  C21 UNK     1      44.629  35.784  29.858  1.00  0.00    -0.007 A 
ATOM     27  C22 UNK     1      45.572  35.732  30.903  1.00  0.00     0.014 A 
ATOM     28  C26 UNK     1      45.057  35.537  28.556  1.00  0.00     0.043 A 
ATOM     29  C23 UNK     1      46.908  35.436  30.606  1.00  0.00     0.001 A 
ATOM     30  C24 UNK     1      47.307  35.193  29.294  1.00  0.00     0.002 A 
ATOM     31  C25 UNK     1      46.387  35.239  28.240  1.00  0.00     0.030 A 
ATOM     32  N3  UNK     1      43.955  35.649  27.745  1.00  0.00    -0.351 N 
ATOM     33  H23 UNK     1      43.951  35.523  26.742  1.00  0.00     0.166 HD
ENDBRANCH  21  24
ENDBRANCH   1  20
TORSDOF 4
ENDMDL
MODEL 3
REMARK VINA RESULT:      -8.6      1.921      7.605
REMARK  4 active torsions:
REMARK  status: ('A' for Active; 'I' for Inactive)
REMARK       I    between atoms: N1_9  and  C10_11 
REMARK    1  A    between atoms: C10_11  and  C11_13 
REMARK    2  A    between atoms: C11_13  and  C12_14 
REMARK    3  A    between atoms: C11_13  and  N2_20 
REMARK       I    between atoms: N2_20  and  C18_21 
REMARK    4  A    between atoms: C18_21  and  C19_23 
ROOT
ATOM      1  C11 UNK     1      42.252  37.930  28.279  1.00  0.00     0.211 C 
ENDROOT
BRANCH   1   2
ATOM      2  C10 UNK     1      41.946  37.872  26.752  1.00  0.00     0.251 C 
ATOM      3  N1  UNK     1      42.090  39.059  26.004  1.00  0.00    -0.315 N 
ATOM      4  C8  UNK     1      41.524  39.227  24.680  1.00  0.00     0.043 A 
ATOM      5  C9  UNK     1      42.767  40.235  26.572  1.00  0.00     0.132 C 
ATOM      6  C3  UNK     1      41.809  40.389  23.926  1.00  0.00    -0.031 A 
ATOM      7  C7  UNK     1      40.655  38.287  24.103  1.00  0.00     0.030 A 
ATOM      8  C2  UNK     1      42.692  41.490  24.451  1.00  0.00     0.042 C 
ATOM      9  C4  UNK     1      41.237  40.576  22.653  1.00  0.00     0.009 A 
ATOM     10  C1  UNK     1      43.599  40.982  25.548  1.00  0.00     0.025 C 
ATOM     11  C5  UNK     1      40.391  39.621  22.105  1.00  0.00     0.001 A 
ATOM     12  C6  UNK     1      40.100  38.476  22.832  1.00  0.00     0.002 A 
ATOM     13  O1  UNK     1      41.608  36.780  26.274  1.00  0.00    -0.270 OA
ENDBRANCH   1   2
BRANCH   1  14
ATOM     14  C12 UNK     1      43.582  37.295  28.663  1.00  0.00    -0.026 A 
ATOM     15  C13 UNK     1      44.767  38.040  28.771  1.00  0.00     0.010 A 
ATOM     16  C14 UNK     1      45.969  37.417  29.112  1.00  0.00     0.001 A 
ATOM     17  C15 UNK     1      46.007  36.042  29.336  1.00  0.00     0.000 A 
ATOM     18  C16 UNK     1      44.845  35.285  29.210  1.00  0.00     0.001 A 
ATOM     19  C17 UNK     1      43.643  35.906  28.869  1.00  0.00     0.010 A 
ENDBRANCH   1  14
BRANCH   1  20
ATOM     20  N2  UNK     1      41.176  37.223  28.960  1.00  0.00    -0.338 N 
ATOM     21  C18 UNK     1      40.057  37.849  29.432  1.00  0.00     0.269 C 
ATOM     22  O2  UNK     1      39.885  39.060  29.326  1.00  0.00    -0.266 OA
ATOM     23  H17 UNK     1      41.277  36.218  29.025  1.00  0.00     0.164 HD
BRANCH  21  24
ATOM     24  C19 UNK     1      39.082  36.986  30.058  1.00  0.00     0.102 A 
ATOM     25  C20 UNK     1      38.462  37.016  31.297  1.00  0.00     0.049 A 
ATOM     26  C21 UNK     1      37.577  35.905  31.386  1.00  0.00    -0.007 A 
ATOM     27  C22 UNK     1      36.702  35.427  32.379  1.00  0.00     0.014 A 
ATOM     28  C26 UNK     1      37.673  35.208  30.184  1.00  0.00     0.043 A 
ATOM     29  C23 UNK     1      35.955  34.268  32.133  1.00  0.00     0.001 A 
ATOM     30  C24 UNK     1      36.071  33.592  30.921  1.00  0.00     0.002 A 
ATOM     31  C25 UNK     1      36.934  34.049  29.920  1.00  0.00     0.030 A 
ATOM     32  N3  UNK     1      38.582  35.879  29.404  1.00  0.00    -0.351 N 
ATOM     33  H23 UNK     1      38.863  35.611  28.470  1.00  0.00     0.166 HD
ENDBRANCH  21  24
ENDBRANCH   1  20
TORSDOF 4
ENDMDL
MODEL 4
REMARK VINA RESULT:      -8.4      1.785      2.766
REMARK  4 active torsions:
REMARK  status: ('A' for Active; 'I' for Inactive)
REMARK       I    between atoms: N1_9  and  C10_11 
REMARK    1  A    between atoms: C10_11  and  C11_13 
REMARK    2  A    between atoms: C11_13  and  C12_14 
REMARK    3  A    between atoms: C11_13  and  N2_20 
REMARK       I    between atoms: N2_20  and  C18_21 
REMARK    4  A    between atoms: C18_21  and  C19_23 
ROOT
ATOM      1  C11 UNK     1      40.822  38.857  29.912  1.00  0.00     0.211 C 
ENDROOT
BRANCH   1   2
ATOM      2  C10 UNK     1      40.004  37.897  30.828  1.00  0.00     0.251 C 
ATOM      3  N1  UNK     1      39.260  36.870  30.210  1.00  0.00    -0.315 N 
ATOM      4  C8  UNK     1      38.211  36.139  30.894  1.00  0.00     0.043 A 
ATOM      5  C9  UNK     1      39.461  36.536  28.791  1.00  0.00     0.132 C 
ATOM      6  C3  UNK     1      37.588  35.035  30.268  1.00  0.00    -0.031 A 
ATOM      7  C7  UNK     1      37.744  36.501  32.168  1.00  0.00     0.030 A 
ATOM      8  C2  UNK     1      37.969  34.575  28.885  1.00  0.00     0.042 C 
ATOM      9  C4  UNK     1      36.545  34.341  30.910  1.00  0.00     0.009 A 
ATOM     10  C1  UNK     1      39.358  35.048  28.520  1.00  0.00     0.025 C 
ATOM     11  C5  UNK     1      36.114  34.716  32.176  1.00  0.00     0.001 A 
ATOM     12  C6  UNK     1      36.714  35.797  32.804  1.00  0.00     0.002 A 
ATOM     13  O1  UNK     1      40.066  38.077  32.052  1.00  0.00    -0.270 OA
ENDBRANCH   1   2
BRANCH   1  14
ATOM     14  C12 UNK     1      39.964  39.659  28.943  1.00  0.00    -0.026 A 
ATOM     15  C13 UNK     1      40.164  39.624  27.555  1.00  0.00     0.010 A 
ATOM     16  C14 UNK     1      39.363  40.385  26.701  1.00  0.00     0.001 A 
ATOM     17  C15 UNK     1      38.362  41.202  27.223  1.00  0.00     0.000 A 
ATOM     18  C16 UNK     1      38.166  41.267  28.600  1.00  0.00     0.001 A 
ATOM     19  C17 UNK     1      38.965  40.506  29.455  1.00  0.00     0.010 A 
ENDBRANCH   1  14
BRANCH   1  20
ATOM     20  N2  UNK     1      41.753  38.035  29.151  1.00  0.00    -0.338 N 
ATOM     21  C18 UNK     1      42.984  37.676  29.623  1.00  0.00     0.269 C 
ATOM     22  O2  UNK     1      43.399  38.034  30.722  1.00  0.00    -0.266 OA
ATOM     23  H17 UNK     1      41.418  37.696  28.259  1.00  0.00     0.164 HD
BRANCH  21  24
ATOM     24  C19 UNK     1      43.764  36.837  28.743  1.00  0.00     0.102 A 
ATOM     25  C20 UNK     1      44.446  35.648  28.942  1.00  0.00     0.049 A 
ATOM     26  C21 UNK     1      45.047  35.260  27.712  1.00  0.00    -0.007 A 
ATOM     27  C22 UNK     1      45.844  34.171  27.311  1.00  0.00     0.014 A 
ATOM     28  C26 UNK     1      44.717  36.232  26.771  1.00  0.00     0.043 A 
ATOM     29  C23 UNK     1      46.281  34.094  25.983  1.00  0.00     0.001 A 
ATOM     30  C24 UNK     1      45.934  35.081  25.063  1.00  0.00     0.002 A 
ATOM     31  C25 UNK     1      45.144  36.173  25.440  1.00  0.00     0.030 A 
ATOM     32  N3  UNK     1      43.946  37.167  27.415  1.00  0.00    -0.351 N 
ATOM     33  H23 UNK     1      43.553  37.996  26.990  1.00  0.00     0.166 HD
ENDBRANCH  21  24
ENDBRANCH   1  20
TORSDOF 4
ENDMDL
MODEL 5
REMARK VINA RESULT:      -8.3      3.684      5.485
REMARK  4 active torsions:
REMARK  status: ('A' for Active; 'I' for Inactive)
REMARK       I    between atoms: N1_9  and  C10_11 
REMARK    1  A    between atoms: C10_11  and  C11_13 
REMARK    2  A    between atoms: C11_13  and  C12_14 
REMARK    3  A    between atoms: C11_13  and  N2_20 
REMARK       I    between atoms: N2_20  and  C18_21 
REMARK    4  A    between atoms: C18_21  and  C19_23 
ROOT
ATOM      1  C11 UNK     1      40.786  37.929  26.780  1.00  0.00     0.211 C 
ENDROOT
BRANCH   1   2
ATOM      2  C10 UNK     1      39.960  36.747  26.187  1.00  0.00     0.251 C 
ATOM      3  N1  UNK     1      39.474  35.769  27.079  1.00  0.00    -0.315 N 
ATOM      4  C8  UNK     1      38.998  34.472  26.639  1.00  0.00     0.043 A 
ATOM      5  C9  UNK     1      39.497  35.989  28.533  1.00  0.00     0.132 C 
ATOM      6  C3  UNK     1      38.402  33.581  27.562  1.00  0.00    -0.031 A 
ATOM      7  C7  UNK     1      39.133  34.025  25.314  1.00  0.00     0.030 A 
ATOM      8  C2  UNK     1      38.240  33.925  29.019  1.00  0.00     0.042 C 
ATOM      9  C4  UNK     1      37.969  32.306  27.151  1.00  0.00     0.009 A 
ATOM     10  C1  UNK     1      38.277  35.421  29.231  1.00  0.00     0.025 C 
ATOM     11  C5  UNK     1      38.105  31.899  25.830  1.00  0.00     0.001 A 
ATOM     12  C6  UNK     1      38.688  32.760  24.912  1.00  0.00     0.002 A 
ATOM     13  O1  UNK     1      39.760  36.741  24.964  1.00  0.00    -0.270 OA
ENDBRANCH   1   2
BRANCH   1  14
ATOM     14  C12 UNK     1      39.942  39.139  27.156  1.00  0.00    -0.026 A 
ATOM     15  C13 UNK     1      39.511  40.079  26.207  1.00  0.00     0.010 A 
ATOM     16  C14 UNK     1      38.748  41.183  26.595  1.00  0.00     0.001 A 
ATOM     17  C15 UNK     1      38.419  41.370  27.936  1.00  0.00     0.000 A 
ATOM     18  C16 UNK     1      38.859  40.460  28.893  1.00  0.00     0.001 A 
ATOM     19  C17 UNK     1      39.620  39.355  28.507  1.00  0.00     0.010 A 
ENDBRANCH   1  14
BRANCH   1  20
ATOM     20  N2  UNK     1      41.756  38.324  25.768  1.00  0.00    -0.338 N 
ATOM     21  C18 UNK     1      43.048  37.879  25.765  1.00  0.00     0.269 C 
ATOM     22  O2  UNK     1      43.487  37.121  26.626  1.00  0.00    -0.266 OA
ATOM     23  H17 UNK     1      41.408  38.917  25.027  1.00  0.00     0.164 HD
BRANCH  21  24
ATOM     24  C19 UNK     1      43.864  38.355  24.671  1.00  0.00     0.102 A 
ATOM     25  C20 UNK     1      45.114  37.983  24.204  1.00  0.00     0.049 A 
ATOM     26  C21 UNK     1      45.437  38.798  23.082  1.00  0.00    -0.007 A 
ATOM     27  C22 UNK     1      46.545  38.880  22.218  1.00  0.00     0.014 A 
ATOM     28  C26 UNK     1      44.364  39.663  22.882  1.00  0.00     0.043 A 
ATOM     29  C23 UNK     1      46.538  39.825  21.184  1.00  0.00     0.001 A 
ATOM     30  C24 UNK     1      45.450  40.676  21.007  1.00  0.00     0.002 A 
ATOM     31  C25 UNK     1      44.339  40.613  21.855  1.00  0.00     0.030 A 
ATOM     32  N3  UNK     1      43.433  39.375  23.849  1.00  0.00    -0.351 N 
ATOM     33  H23 UNK     1      42.542  39.840  23.960  1.00  0.00     0.166 HD
ENDBRANCH  21  24
ENDBRANCH   1  20
TORSDOF 4
ENDMDL
MODEL 6
REMARK VINA RESULT:      -8.3      1.573      2.122
REMARK  4 active torsions:
REMARK  status: ('A' for Active; 'I' for Inactive)
REMARK       I    between atoms: N1_9  and  C10_11 
REMARK    1  A    between atoms: C10_11  and  C11_13 
REMARK    2  A    between atoms: C11_13  and  C12_14 
REMARK    3  A    between atoms: C11_13  and  N2_20 
REMARK       I    between atoms: N2_20  and  C18_21 
REMARK    4  A    between atoms: C18_21  and  C19_23 
ROOT
ATOM      1  C11 UNK     1      41.378  37.884  28.761  1.00  0.00     0.211 C 
ENDROOT
BRANCH   1   2
ATOM      2  C10 UNK     1      40.057  37.057  28.766  1.00  0.00     0.251 C 
ATOM      3  N1  UNK     1      39.364  36.928  29.988  1.00  0.00    -0.315 N 
ATOM      4  C8  UNK     1      38.335  35.930  30.205  1.00  0.00     0.043 A 
ATOM      5  C9  UNK     1      39.711  37.763  31.148  1.00  0.00     0.132 C 
ATOM      6  C3  UNK     1      37.585  35.930  31.404  1.00  0.00    -0.031 A 
ATOM      7  C7  UNK     1      38.059  34.912  29.278  1.00  0.00     0.030 A 
ATOM      8  C2  UNK     1      37.815  36.942  32.496  1.00  0.00     0.042 C 
ATOM      9  C4  UNK     1      36.608  34.945  31.640  1.00  0.00     0.009 A 
ATOM     10  C1  UNK     1      38.495  38.179  31.953  1.00  0.00     0.025 C 
ATOM     11  C5  UNK     1      36.349  33.958  30.695  1.00  0.00     0.001 A 
ATOM     12  C6  UNK     1      37.077  33.943  29.515  1.00  0.00     0.002 A 
ATOM     13  O1  UNK     1      39.677  36.572  27.691  1.00  0.00    -0.270 OA
ENDBRANCH   1   2
BRANCH   1  14
ATOM     14  C12 UNK     1      41.847  38.282  27.368  1.00  0.00    -0.026 A 
ATOM     15  C13 UNK     1      41.291  39.364  26.667  1.00  0.00     0.010 A 
ATOM     16  C14 UNK     1      41.741  39.688  25.385  1.00  0.00     0.001 A 
ATOM     17  C15 UNK     1      42.739  38.928  24.781  1.00  0.00     0.000 A 
ATOM     18  C16 UNK     1      43.285  37.837  25.452  1.00  0.00     0.001 A 
ATOM     19  C17 UNK     1      42.838  37.512  26.734  1.00  0.00     0.010 A 
ENDBRANCH   1  14
BRANCH   1  20
ATOM     20  N2  UNK     1      42.402  37.061  29.389  1.00  0.00    -0.338 N 
ATOM     21  C18 UNK     1      43.190  37.507  30.411  1.00  0.00     0.269 C 
ATOM     22  O2  UNK     1      43.099  38.644  30.867  1.00  0.00    -0.266 OA
ATOM     23  H17 UNK     1      42.470  36.108  29.056  1.00  0.00     0.164 HD
BRANCH  21  24
ATOM     24  C19 UNK     1      44.137  36.546  30.929  1.00  0.00     0.102 A 
ATOM     25  C20 UNK     1      44.954  36.544  32.048  1.00  0.00     0.049 A 
ATOM     26  C21 UNK     1      45.688  35.325  32.068  1.00  0.00    -0.007 A 
ATOM     27  C22 UNK     1      46.649  34.774  32.937  1.00  0.00     0.014 A 
ATOM     28  C26 UNK     1      45.301  34.595  30.946  1.00  0.00     0.043 A 
ATOM     29  C23 UNK     1      47.187  33.513  32.652  1.00  0.00     0.001 A 
ATOM     30  C24 UNK     1      46.780  32.805  31.524  1.00  0.00     0.002 A 
ATOM     31  C25 UNK     1      45.827  33.334  30.646  1.00  0.00     0.030 A 
ATOM     32  N3  UNK     1      44.368  35.350  30.280  1.00  0.00    -0.351 N 
ATOM     33  H23 UNK     1      43.901  35.082  29.424  1.00  0.00     0.166 HD
ENDBRANCH  21  24
ENDBRANCH   1  20
TORSDOF 4
ENDMDL
MODEL 7
REMARK VINA RESULT:      -8.1      2.350      3.134
REMARK  4 active torsions:
REMARK  status: ('A' for Active; 'I' for Inactive)
REMARK       I    between atoms: N1_9  and  C10_11 
REMARK    1  A    between atoms: C10_11  and  C11_13 
REMARK    2  A    between atoms: C11_13  and  C12_14 
REMARK    3  A    between atoms: C11_13  and  N2_20 
REMARK       I    between atoms: N2_20  and  C18_21 
REMARK    4  A    between atoms: C18_21  and  C19_23 
ROOT
ATOM      1  C11 UNK     1      40.781  37.328  26.904  1.00  0.00     0.211 C 
ENDROOT
BRANCH   1   2
ATOM      2  C10 UNK     1      39.926  36.236  26.192  1.00  0.00     0.251 C 
ATOM      3  N1  UNK     1      39.369  35.212  26.987  1.00  0.00    -0.315 N 
ATOM      4  C8  UNK     1      38.855  33.977  26.429  1.00  0.00     0.043 A 
ATOM      5  C9  UNK     1      39.354  35.315  28.454  1.00  0.00     0.132 C 
ATOM      6  C3  UNK     1      38.191  33.043  27.259  1.00  0.00    -0.031 A 
ATOM      7  C7  UNK     1      39.015  33.632  25.077  1.00  0.00     0.030 A 
ATOM      8  C2  UNK     1      37.995  33.276  28.733  1.00  0.00     0.042 C 
ATOM      9  C4  UNK     1      37.719  31.825  26.733  1.00  0.00     0.009 A 
ATOM     10  C1  UNK     1      38.088  34.748  29.067  1.00  0.00     0.025 C 
ATOM     11  C5  UNK     1      37.881  31.520  25.387  1.00  0.00     0.001 A 
ATOM     12  C6  UNK     1      38.530  32.424  24.560  1.00  0.00     0.002 A 
ATOM     13  O1  UNK     1      39.768  36.336  24.968  1.00  0.00    -0.270 OA
ENDBRANCH   1   2
BRANCH   1  14
ATOM     14  C12 UNK     1      41.107  38.524  26.020  1.00  0.00    -0.026 A 
ATOM     15  C13 UNK     1      42.278  38.592  25.249  1.00  0.00     0.010 A 
ATOM     16  C14 UNK     1      42.546  39.714  24.460  1.00  0.00     0.001 A 
ATOM     17  C15 UNK     1      41.657  40.786  24.443  1.00  0.00     0.000 A 
ATOM     18  C16 UNK     1      40.502  40.745  25.220  1.00  0.00     0.001 A 
ATOM     19  C17 UNK     1      40.232  39.625  26.008  1.00  0.00     0.010 A 
ENDBRANCH   1  14
BRANCH   1  20
ATOM     20  N2  UNK     1      42.024  36.695  27.322  1.00  0.00    -0.338 N 
ATOM     21  C18 UNK     1      42.527  36.808  28.587  1.00  0.00     0.269 C 
ATOM     22  O2  UNK     1      41.969  37.464  29.462  1.00  0.00    -0.266 OA
ATOM     23  H17 UNK     1      42.483  36.117  26.629  1.00  0.00     0.164 HD
BRANCH  21  24
ATOM     24  C19 UNK     1      43.758  36.092  28.831  1.00  0.00     0.102 A 
ATOM     25  C20 UNK     1      44.566  35.971  29.950  1.00  0.00     0.049 A 
ATOM     26  C21 UNK     1      45.668  35.132  29.622  1.00  0.00    -0.007 A 
ATOM     27  C22 UNK     1      46.787  34.661  30.334  1.00  0.00     0.014 A 
ATOM     28  C26 UNK     1      45.511  34.751  28.291  1.00  0.00     0.043 A 
ATOM     29  C23 UNK     1      47.708  33.826  29.689  1.00  0.00     0.001 A 
ATOM     30  C24 UNK     1      47.525  33.462  28.358  1.00  0.00     0.002 A 
ATOM     31  C25 UNK     1      46.420  33.918  27.630  1.00  0.00     0.030 A 
ATOM     32  N3  UNK     1      44.356  35.341  27.840  1.00  0.00    -0.351 N 
ATOM     33  H23 UNK     1      43.978  35.248  26.907  1.00  0.00     0.166 HD
ENDBRANCH  21  24
ENDBRANCH   1  20
TORSDOF 4
ENDMDL
MODEL 8
REMARK VINA RESULT:      -8.1      3.440      7.251
REMARK  4 active torsions:
REMARK  status: ('A' for Active; 'I' for Inactive)
REMARK       I    between atoms: N1_9  and  C10_11 
REMARK    1  A    between atoms: C10_11  and  C11_13 
REMARK    2  A    between atoms: C11_13  and  C12_14 
REMARK    3  A    between atoms: C11_13  and  N2_20 
REMARK       I    between atoms: N2_20  and  C18_21 
REMARK    4  A    between atoms: C18_21  and  C19_23 
ROOT
ATOM      1  C11 UNK     1      39.651  38.039  30.472  1.00  0.00     0.211 C 
ENDROOT
BRANCH   1   2
ATOM      2  C10 UNK     1      41.191  38.243  30.596  1.00  0.00     0.251 C 
ATOM      3  N1  UNK     1      41.757  39.385  29.991  1.00  0.00    -0.315 N 
ATOM      4  C8  UNK     1      43.178  39.518  29.740  1.00  0.00     0.043 A 
ATOM      5  C9  UNK     1      40.909  40.484  29.505  1.00  0.00     0.132 C 
ATOM      6  C3  UNK     1      43.704  40.736  29.250  1.00  0.00    -0.031 A 
ATOM      7  C7  UNK     1      44.083  38.461  29.930  1.00  0.00     0.030 A 
ATOM      8  C2  UNK     1      42.832  41.930  28.965  1.00  0.00     0.042 C 
ATOM      9  C4  UNK     1      45.078  40.864  28.971  1.00  0.00     0.009 A 
ATOM     10  C1  UNK     1      41.532  41.847  29.732  1.00  0.00     0.025 C 
ATOM     11  C5  UNK     1      45.949  39.802  29.182  1.00  0.00     0.001 A 
ATOM     12  C6  UNK     1      45.450  38.600  29.661  1.00  0.00     0.002 A 
ATOM     13  O1  UNK     1      41.834  37.398  31.235  1.00  0.00    -0.270 OA
ENDBRANCH   1   2
BRANCH   1  14
ATOM     14  C12 UNK     1      38.970  37.695  31.789  1.00  0.00    -0.026 A 
ATOM     15  C13 UNK     1      39.354  38.276  33.008  1.00  0.00     0.010 A 
ATOM     16  C14 UNK     1      38.711  37.923  34.198  1.00  0.00     0.001 A 
ATOM     17  C15 UNK     1      37.690  36.976  34.188  1.00  0.00     0.000 A 
ATOM     18  C16 UNK     1      37.313  36.372  32.990  1.00  0.00     0.001 A 
ATOM     19  C17 UNK     1      37.953  36.724  31.801  1.00  0.00     0.010 A 
ENDBRANCH   1  14
BRANCH   1  20
ATOM     20  N2  UNK     1      39.437  36.950  29.529  1.00  0.00    -0.338 N 
ATOM     21  C18 UNK     1      39.381  37.138  28.177  1.00  0.00     0.269 C 
ATOM     22  O2  UNK     1      39.495  38.246  27.660  1.00  0.00    -0.266 OA
ATOM     23  H17 UNK     1      39.378  36.022  29.929  1.00  0.00     0.164 HD
BRANCH  21  24
ATOM     24  C19 UNK     1      39.186  35.940  27.392  1.00  0.00     0.102 A 
ATOM     25  C20 UNK     1      39.427  35.642  26.061  1.00  0.00     0.049 A 
ATOM     26  C21 UNK     1      39.044  34.292  25.824  1.00  0.00    -0.007 A 
ATOM     27  C22 UNK     1      39.056  33.455  24.693  1.00  0.00     0.014 A 
ATOM     28  C26 UNK     1      38.571  33.783  27.031  1.00  0.00     0.043 A 
ATOM     29  C23 UNK     1      38.593  32.138  24.810  1.00  0.00     0.001 A 
ATOM     30  C24 UNK     1      38.126  31.656  26.031  1.00  0.00     0.002 A 
ATOM     31  C25 UNK     1      38.105  32.471  27.168  1.00  0.00     0.030 A 
ATOM     32  N3  UNK     1      38.668  34.793  27.956  1.00  0.00    -0.351 N 
ATOM     33  H23 UNK     1      38.399  34.723  28.929  1.00  0.00     0.166 HD
ENDBRANCH  21  24
ENDBRANCH   1  20
TORSDOF 4
ENDMDL
MODEL 9
REMARK VINA RESULT:      -8.0      3.600      6.156
REMARK  4 active torsions:
REMARK  status: ('A' for Active; 'I' for Inactive)
REMARK       I    between atoms: N1_9  and  C10_11 
REMARK    1  A    between atoms: C10_11  and  C11_13 
REMARK    2  A    between atoms: C11_13  and  C12_14 
REMARK    3  A    between atoms: C11_13  and  N2_20 
REMARK       I    between atoms: N2_20  and  C18_21 
REMARK    4  A    between atoms: C18_21  and  C19_23 
ROOT
ATOM      1  C11 UNK     1      39.617  37.316  28.507  1.00  0.00     0.211 C 
ENDROOT
BRANCH   1   2
ATOM      2  C10 UNK     1      40.640  37.323  29.682  1.00  0.00     0.251 C 
ATOM      3  N1  UNK     1      40.201  37.796  30.937  1.00  0.00    -0.315 N 
ATOM      4  C8  UNK     1      41.115  38.169  31.999  1.00  0.00     0.043 A 
ATOM      5  C9  UNK     1      38.772  38.011  31.208  1.00  0.00     0.132 C 
ATOM      6  C3  UNK     1      40.617  38.513  33.278  1.00  0.00    -0.031 A 
ATOM      7  C7  UNK     1      42.505  38.244  31.812  1.00  0.00     0.030 A 
ATOM      8  C2  UNK     1      39.145  38.514  33.593  1.00  0.00     0.042 C 
ATOM      9  C4  UNK     1      41.494  38.910  34.305  1.00  0.00     0.009 A 
ATOM     10  C1  UNK     1      38.382  37.638  32.625  1.00  0.00     0.025 C 
ATOM     11  C5  UNK     1      42.866  38.961  34.091  1.00  0.00     0.001 A 
ATOM     12  C6  UNK     1      43.370  38.628  32.843  1.00  0.00     0.002 A 
ATOM     13  O1  UNK     1      41.781  36.895  29.456  1.00  0.00    -0.270 OA
ENDBRANCH   1   2
BRANCH   1  14
ATOM     14  C12 UNK     1      39.017  35.946  28.225  1.00  0.00    -0.026 A 
ATOM     15  C13 UNK     1      38.290  35.230  29.189  1.00  0.00     0.010 A 
ATOM     16  C14 UNK     1      37.765  33.970  28.894  1.00  0.00     0.001 A 
ATOM     17  C15 UNK     1      37.973  33.401  27.639  1.00  0.00     0.000 A 
ATOM     18  C16 UNK     1      38.711  34.087  26.679  1.00  0.00     0.001 A 
ATOM     19  C17 UNK     1      39.235  35.347  26.971  1.00  0.00     0.010 A 
ENDBRANCH   1  14
BRANCH   1  20
ATOM     20  N2  UNK     1      40.325  37.777  27.320  1.00  0.00    -0.338 N 
ATOM     21  C18 UNK     1      40.050  38.965  26.705  1.00  0.00     0.269 C 
ATOM     22  O2  UNK     1      39.174  39.727  27.105  1.00  0.00    -0.266 OA
ATOM     23  H17 UNK     1      41.078  37.184  26.994  1.00  0.00     0.164 HD
BRANCH  21  24
ATOM     24  C19 UNK     1      40.868  39.272  25.554  1.00  0.00     0.102 A 
ATOM     25  C20 UNK     1      40.580  39.839  24.324  1.00  0.00     0.049 A 
ATOM     26  C21 UNK     1      41.782  39.906  23.565  1.00  0.00    -0.007 A 
ATOM     27  C22 UNK     1      42.103  40.371  22.276  1.00  0.00     0.014 A 
ATOM     28  C26 UNK     1      42.796  39.371  24.356  1.00  0.00     0.043 A 
ATOM     29  C23 UNK     1      43.426  40.285  21.826  1.00  0.00     0.001 A 
ATOM     30  C24 UNK     1      44.419  39.745  22.640  1.00  0.00     0.002 A 
ATOM     31  C25 UNK     1      44.123  39.276  23.924  1.00  0.00     0.030 A 
ATOM     32  N3  UNK     1      42.220  38.999  25.546  1.00  0.00    -0.351 N 
ATOM     33  H23 UNK     1      42.708  38.578  26.326  1.00  0.00     0.166 HD
ENDBRANCH  21  24
ENDBRANCH   1  20
TORSDOF 4
ENDMDL
MODEL 10
REMARK VINA RESULT:      -8.0      2.720      7.541
REMARK  4 active torsions:
REMARK  status: ('A' for Active; 'I' for Inactive)
REMARK       I    between atoms: N1_9  and  C10_11 
REMARK    1  A    between atoms: C10_11  and  C11_13 
REMARK    2  A    between atoms: C11_13  and  C12_14 
REMARK    3  A    between atoms: C11_13  and  N2_20 
REMARK       I    between atoms: N2_20  and  C18_21 
REMARK    4  A    between atoms: C18_21  and  C19_23 
ROOT
ATOM      1  C11 UNK     1      41.021  38.615  26.611  1.00  0.00     0.211 C 
ENDROOT
BRANCH   1   2
ATOM      2  C10 UNK     1      42.397  39.017  27.222  1.00  0.00     0.251 C 
ATOM      3  N1  UNK     1      43.564  38.532  26.596  1.00  0.00    -0.315 N 
ATOM      4  C8  UNK     1      44.863  38.543  27.240  1.00  0.00     0.043 A 
ATOM      5  C9  UNK     1      43.507  37.908  25.266  1.00  0.00     0.132 C 
ATOM      6  C3  UNK     1      46.019  38.165  26.518  1.00  0.00    -0.031 A 
ATOM      7  C7  UNK     1      45.036  38.886  28.591  1.00  0.00     0.030 A 
ATOM      8  C2  UNK     1      45.960  37.734  25.076  1.00  0.00     0.042 C 
ATOM      9  C4  UNK     1      47.280  38.139  27.144  1.00  0.00     0.009 A 
ATOM     10  C1  UNK     1      44.708  38.253  24.406  1.00  0.00     0.025 C 
ATOM     11  C5  UNK     1      47.419  38.497  28.479  1.00  0.00     0.001 A 
ATOM     12  C6  UNK     1      46.296  38.870  29.202  1.00  0.00     0.002 A 
ATOM     13  O1  UNK     1      42.392  39.756  28.217  1.00  0.00    -0.270 OA
ENDBRANCH   1   2
BRANCH   1  14
ATOM     14  C12 UNK     1      40.291  39.767  25.934  1.00  0.00    -0.026 A 
ATOM     15  C13 UNK     1      40.629  40.220  24.649  1.00  0.00     0.010 A 
ATOM     16  C14 UNK     1      39.943  41.289  24.067  1.00  0.00     0.001 A 
ATOM     17  C15 UNK     1      38.922  41.929  24.767  1.00  0.00     0.000 A 
ATOM     18  C16 UNK     1      38.590  41.508  26.052  1.00  0.00     0.001 A 
ATOM     19  C17 UNK     1      39.274  40.439  26.634  1.00  0.00     0.010 A 
ENDBRANCH   1  14
BRANCH   1  20
ATOM     20  N2  UNK     1      40.198  38.109  27.701  1.00  0.00    -0.338 N 
ATOM     21  C18 UNK     1      40.111  36.782  28.011  1.00  0.00     0.269 C 
ATOM     22  O2  UNK     1      40.713  35.916  27.382  1.00  0.00    -0.266 OA
ATOM     23  H17 UNK     1      39.722  38.807  28.259  1.00  0.00     0.164 HD
BRANCH  21  24
ATOM     24  C19 UNK     1      39.267  36.463  29.140  1.00  0.00     0.102 A 
ATOM     25  C20 UNK     1      38.333  35.464  29.360  1.00  0.00     0.049 A 
ATOM     26  C21 UNK     1      37.795  35.629  30.667  1.00  0.00    -0.007 A 
ATOM     27  C22 UNK     1      36.833  34.935  31.425  1.00  0.00     0.014 A 
ATOM     28  C26 UNK     1      38.418  36.740  31.229  1.00  0.00     0.043 A 
ATOM     29  C23 UNK     1      36.530  35.378  32.718  1.00  0.00     0.001 A 
ATOM     30  C24 UNK     1      37.169  36.493  33.255  1.00  0.00     0.002 A 
ATOM     31  C25 UNK     1      38.128  37.198  32.519  1.00  0.00     0.030 A 
ATOM     32  N3  UNK     1      39.298  37.222  30.292  1.00  0.00    -0.351 N 
ATOM     33  H23 UNK     1      39.898  38.027  30.412  1.00  0.00     0.166 HD
ENDBRANCH  21  24
ENDBRANCH   1  20
TORSDOF 4
ENDMDL
