REMARK  2 active torsions:
REMARK  status: ('A' for Active; 'I' for Inactive)
REMARK    1  A    between atoms: C2_2  and  N2_12 
REMARK       I    between atoms: N2_12  and  C10_13 
REMARK    2  A    between atoms: C10_13  and  C11_15 
ROOT
ATOM      1  N2  UNK     1       8.609  56.837  10.090  1.00  0.00    -0.342 N 
ATOM      2  C10 UNK     1       8.711  58.189  10.327  1.00  0.00     0.269 C 
ATOM      3  O2  UNK     1       9.797  58.740  10.475  1.00  0.00    -0.266 OA
ATOM      4  H9  UNK     1       7.775  56.499   9.625  1.00  0.00     0.163 HD
ENDROOT
BRANCH   1   5
ATOM      5  C2  UNK     1       9.800  56.020   9.857  1.00  0.00     0.181 C 
ATOM      6  C1  UNK     1      10.635  55.797  11.117  1.00  0.00     0.075 C 
ATOM      7  C9  UNK     1      11.696  54.753  10.882  1.00  0.00    -0.029 A 
ATOM      8  C4  UNK     1      11.443  53.695  10.000  1.00  0.00     0.041 A 
ATOM      9  C8  UNK     1      12.894  54.771  11.604  1.00  0.00     0.009 A 
ATOM     10  N1  UNK     1      10.237  53.653   9.293  1.00  0.00    -0.325 N 
ATOM     11  C5  UNK     1      12.367  52.663   9.845  1.00  0.00     0.030 A 
ATOM     12  C3  UNK     1       9.330  54.678   9.277  1.00  0.00     0.245 C 
ATOM     13  H4  UNK     1       9.976  52.815   8.789  1.00  0.00     0.169 HD
ATOM     14  O1  UNK     1       8.226  54.543   8.746  1.00  0.00    -0.271 OA
ATOM     15  C6  UNK     1      13.566  52.696  10.559  1.00  0.00     0.002 A 
ATOM     16  C7  UNK     1      13.830  53.749  11.434  1.00  0.00     0.001 A 
ENDBRANCH   1   5
BRANCH   2  17
ATOM     17  C11 UNK     1       7.450  58.897  10.363  1.00  0.00     0.102 A 
ATOM     18  C12 UNK     1       7.251  60.268  10.320  1.00  0.00     0.049 A 
ATOM     19  C13 UNK     1       5.857  60.528  10.390  1.00  0.00    -0.007 A 
ATOM     20  C14 UNK     1       5.075  61.699  10.379  1.00  0.00     0.014 A 
ATOM     21  C18 UNK     1       5.218  59.295  10.494  1.00  0.00     0.043 A 
ATOM     22  C15 UNK     1       3.682  61.592  10.472  1.00  0.00     0.001 A 
ATOM     23  C16 UNK     1       3.071  60.345  10.576  1.00  0.00     0.002 A 
ATOM     24  C17 UNK     1       3.827  59.169  10.591  1.00  0.00     0.030 A 
ATOM     25  N3  UNK     1       6.200  58.331  10.489  1.00  0.00    -0.351 N 
ATOM     26  H15 UNK     1       6.020  57.343  10.592  1.00  0.00     0.166 HD
ENDBRANCH   2  17
TORSDOF 2
