REMARK  5 active torsions:
REMARK  status: ('A' for Active; 'I' for Inactive)
REMARK    1  A    between atoms: C14_5  and  C8_8 
REMARK    2  A    between atoms: C13_6  and  O3_30 
REMARK    3  A    between atoms: C2_11  and  C21_23 
REMARK    4  A    between atoms: C5_16  and  O5_17 
REMARK    5  A    between atoms: C7_20  and  O7_21 
ROOT
HETATM    1  C8  CPB A 940      32.352  10.589  47.886  1.00 27.71     0.017 A 
HETATM    2  C9  CPB A 940      33.521  10.106  48.526  1.00 24.44     0.102 A 
HETATM    3  O1  CPB A 940      33.810   8.720  48.501  1.00 23.48    -0.308 OA
HETATM    4  C2  CPB A 940      34.903   8.144  49.065  1.00 24.32     0.091 A 
HETATM    5  C3  CPB A 940      35.817   8.898  49.729  1.00 21.91     0.094 A 
HETATM    6  C4  CPB A 940      35.646  10.364  49.832  1.00 21.88     0.190 A 
HETATM    7  O4  CPB A 940      36.468  11.037  50.412  1.00 21.78    -0.287 OA
HETATM    8  C10 CPB A 940      34.420  10.999  49.179  1.00 22.83     0.082 A 
HETATM    9  C5  CPB A 940      34.155  12.404  49.207  1.00 23.26     0.085 A 
HETATM   10  C6  CPB A 940      32.985  12.887  48.577  1.00 25.16     0.074 A 
HETATM   11  C7  CPB A 940      32.087  11.999  47.913  1.00 27.86     0.077 A 
ENDROOT
BRANCH   1  12
HETATM   12  C14 CPB A 940      31.459   9.521  47.197  1.00 31.06     0.056 C 
HETATM   13  C13 CPB A 940      31.142   9.766  45.674  1.00 33.81     0.155 C 
HETATM   14  C12 CPB A 940      30.249   8.606  45.159  1.00 35.43     0.304 C 
HETATM   15  N1  CPB A 940      28.982   8.561  45.950  1.00 36.50     0.086 N 
HETATM   16  C1  CPB A 940      28.075   7.563  45.350  1.00 37.97     0.310 C 
HETATM   17  C16 CPB A 940      29.231   8.307  47.403  1.00 34.96     0.272 C 
HETATM   18  C15 CPB A 940      30.167   9.372  48.045  1.00 32.38     0.042 C 
BRANCH  13  19
HETATM   19  O3  CPB A 940      30.395  10.952  45.370  1.00 34.53    -0.393 OA
ATOM     20  H3  CPB A 940      30.942  11.662  45.685  1.00  0.00     0.210 HD
ENDBRANCH  13  19
ENDBRANCH   1  12
BRANCH  11  21
HETATM   21  O7  CPB A 940      30.951  12.505  47.300  1.00 30.40    -0.360 OA
ATOM     22  H7  CPB A 940      30.353  11.914  46.858  1.00  0.00     0.217 HD
ENDBRANCH  11  21
BRANCH   9  23
HETATM   23  O5  CPB A 940      35.018  13.320  49.835  1.00 23.43    -0.360 OA
ATOM     24  H5  CPB A 940      34.842  14.253  49.854  1.00  0.00     0.217 HD
ENDBRANCH   9  23
BRANCH   4  25
HETATM   25  C21 CPB A 940      35.080   6.616  48.937  1.00 27.00     0.020 A 
HETATM   26  C26 CPB A 940      36.398   6.068  48.767  1.00 22.79     0.016 A 
HETATM   27  C25 CPB A 940      36.584   4.662  48.646  1.00 32.35     0.001 A 
HETATM   28  C24 CPB A 940      35.455   3.772  48.680  1.00 31.27     0.002 A 
HETATM   29  C23 CPB A 940      34.147   4.306  48.848  1.00 29.47     0.025 A 
HETATM   30  C22 CPB A 940      33.953   5.701  48.973  1.00 28.86     0.047 A 
HETATM   31 CL1  CPB A 940      32.318   6.242  49.170  1.00 35.99    -0.083 Cl
ENDBRANCH   4  25
TORSDOF 5
