
     RDKit          3D

 55 58  0  0  0  0  0  0  0  0999 V2000
    0.5225    1.5429   -1.4320 C   0  0  0  0  0  0  0  0  0  0  0  0
    0.9393    0.5087   -0.3922 C   0  0  1  0  0  0  0  0  0  0  0  0
    0.1255   -0.7950   -0.5550 C   0  0  0  0  0  0  0  0  0  0  0  0
    0.6270   -1.7505   -1.1621 O   0  0  0  0  0  0  0  0  0  0  0  0
   -1.1589   -0.8642   -0.0272 N   0  0  0  0  0  0  0  0  0  0  0  0
   -1.9169    0.2866    0.4795 C   0  0  0  0  0  0  0  0  0  0  0  0
   -2.9733   -0.1087    1.5297 C   0  0  0  0  0  0  0  0  0  0  0  0
   -3.8574   -1.2246    1.1356 N   0  0  0  0  0  0  0  0  0  0  0  0
   -3.0163   -2.3709    0.7334 C   0  0  0  0  0  0  0  0  0  0  0  0
   -1.9564   -2.0552   -0.3393 C   0  0  0  0  0  0  0  0  0  0  0  0
   -4.8099   -0.8619    0.0722 C   0  0  0  0  0  0  0  0  0  0  0  0
   -5.8308    0.1710    0.5027 C   0  0  0  0  0  0  0  0  0  0  0  0
   -5.9956    1.3587   -0.2251 C   0  0  0  0  0  0  0  0  0  0  0  0
   -6.9465    2.3031    0.1667 C   0  0  0  0  0  0  0  0  0  0  0  0
   -7.7442    2.0694    1.2855 C   0  0  0  0  0  0  0  0  0  0  0  0
   -7.5940    0.8910    2.0136 C   0  0  0  0  0  0  0  0  0  0  0  0
   -6.6447   -0.0544    1.6232 C   0  0  0  0  0  0  0  0  0  0  0  0
    2.3460    0.1599   -0.5641 N   0  0  0  0  0  0  0  0  0  0  0  0
    3.3674    0.9256   -0.0703 C   0  0  0  0  0  0  0  0  0  0  0  0
    3.1668    1.9741    0.5366 O   0  0  0  0  0  0  0  0  0  0  0  0
    4.6980    0.4169   -0.3109 C   0  0  0  0  0  0  0  0  0  0  0  0
    5.1654   -0.7191   -0.9508 C   0  0  0  0  0  0  0  0  0  0  0  0
    6.5877   -0.7167   -0.8917 C   0  0  0  0  0  0  0  0  0  0  0  0
    7.5891   -1.5900   -1.3575 C   0  0  0  0  0  0  0  0  0  0  0  0
    8.9331   -1.2776   -1.1216 C   0  0  0  0  0  0  0  0  0  0  0  0
    9.2830   -0.1171   -0.4341 C   0  0  0  0  0  0  0  0  0  0  0  0
    8.3052    0.7642    0.0375 C   0  0  0  0  0  0  0  0  0  0  0  0
    6.9672    0.4354   -0.2077 C   0  0  0  0  0  0  0  0  0  0  0  0
    5.8127    1.0980    0.1306 N   0  0  0  0  0  0  0  0  0  0  0  0
    1.1328    2.4488   -1.3545 H   0  0  0  0  0  0  0  0  0  0  0  0
   -0.5241    1.8369   -1.3219 H   0  0  0  0  0  0  0  0  0  0  0  0
    0.6458    1.1486   -2.4474 H   0  0  0  0  0  0  0  0  0  0  0  0
    0.8237    0.8991    0.6229 H   0  0  0  0  0  0  0  0  0  0  0  0
   -1.2447    1.0247    0.9221 H   0  0  0  0  0  0  0  0  0  0  0  0
   -2.3982    0.7596   -0.3838 H   0  0  0  0  0  0  0  0  0  0  0  0
   -2.4477   -0.4134    2.4450 H   0  0  0  0  0  0  0  0  0  0  0  0
   -3.5544    0.7750    1.8166 H   0  0  0  0  0  0  0  0  0  0  0  0
   -3.6446   -3.2052    0.3986 H   0  0  0  0  0  0  0  0  0  0  0  0
   -2.5001   -2.7353    1.6317 H   0  0  0  0  0  0  0  0  0  0  0  0
   -2.4326   -1.8767   -1.3106 H   0  0  0  0  0  0  0  0  0  0  0  0
   -1.3034   -2.9270   -0.4571 H   0  0  0  0  0  0  0  0  0  0  0  0
   -5.3810   -1.7521   -0.2245 H   0  0  0  0  0  0  0  0  0  0  0  0
   -4.2933   -0.5194   -0.8322 H   0  0  0  0  0  0  0  0  0  0  0  0
   -5.3861    1.5573   -1.1032 H   0  0  0  0  0  0  0  0  0  0  0  0
   -7.0672    3.2213   -0.4023 H   0  0  0  0  0  0  0  0  0  0  0  0
   -8.4841    2.8050    1.5896 H   0  0  0  0  0  0  0  0  0  0  0  0
   -8.2148    0.7068    2.8864 H   0  0  0  0  0  0  0  0  0  0  0  0
   -6.5308   -0.9701    2.2004 H   0  0  0  0  0  0  0  0  0  0  0  0
    2.5372   -0.7156   -1.0379 H   0  0  0  0  0  0  0  0  0  0  0  0
    4.5615   -1.4850   -1.4188 H   0  0  0  0  0  0  0  0  0  0  0  0
    7.3248   -2.4965   -1.8938 H   0  0  0  0  0  0  0  0  0  0  0  0
    9.7102   -1.9486   -1.4791 H   0  0  0  0  0  0  0  0  0  0  0  0
   10.3330    0.1079   -0.2607 H   0  0  0  0  0  0  0  0  0  0  0  0
    8.5803    1.6670    0.5729 H   0  0  0  0  0  0  0  0  0  0  0  0
    5.7668    1.9724    0.6370 H   0  0  0  0  0  0  0  0  0  0  0  0
  1  2  1  0
  2  3  1  0
  3  4  2  0
  3  5  1  0
  5  6  1  0
  6  7  1  0
  7  8  1  0
  8  9  1  0
  9 10  1  0
  8 11  1  0
 11 12  1  0
 12 13  2  0
 13 14  1  0
 14 15  2  0
 15 16  1  0
 16 17  2  0
  2 18  1  0
 18 19  1  0
 19 20  2  0
 19 21  1  0
 21 22  2  0
 22 23  1  0
 23 24  2  0
 24 25  1  0
 25 26  2  0
 26 27  1  0
 27 28  2  0
 28 29  1  0
 10  5  1  0
 17 12  1  0
 29 21  1  0
 28 23  1  0
  1 30  1  0
  1 31  1  0
  1 32  1  0
  2 33  1  1
  6 34  1  0
  6 35  1  0
  7 36  1  0
  7 37  1  0
  9 38  1  0
  9 39  1  0
 10 40  1  0
 10 41  1  0
 11 42  1  0
 11 43  1  0
 13 44  1  0
 14 45  1  0
 15 46  1  0
 16 47  1  0
 17 48  1  0
 18 49  1  0
 22 50  1  0
 24 51  1  0
 25 52  1  0
 26 53  1  0
 27 54  1  0
 29 55  1  0
M  END
