
     RDKit          3D

 54 58  0  0  0  0  0  0  0  0999 V2000
   -4.4257    0.7111    1.4720 C   0  0  0  0  0  0  0  0  0  0  0  0
   -5.3020   -0.4859    1.1796 C   0  0  0  0  0  0  0  0  0  0  0  0
   -4.8445   -1.1993   -0.0642 C   0  0  0  0  0  0  0  0  0  0  0  0
   -5.7761   -2.0440   -0.6998 C   0  0  0  0  0  0  0  0  0  0  0  0
   -5.4280   -2.7580   -1.8394 C   0  0  0  0  0  0  0  0  0  0  0  0
   -4.1417   -2.6452   -2.3441 C   0  0  0  0  0  0  0  0  0  0  0  0
   -3.2052   -1.8180   -1.7116 C   0  0  0  0  0  0  0  0  0  0  0  0
   -3.5283   -1.0717   -0.5669 C   0  0  0  0  0  0  0  0  0  0  0  0
   -2.5656   -0.2285    0.1144 N   0  0  0  0  0  0  0  0  0  0  0  0
   -2.9720    0.2813    1.4323 C   0  0  0  0  0  0  0  0  0  0  0  0
   -1.2819    0.0380   -0.4042 C   0  0  0  0  0  0  0  0  0  0  0  0
   -0.9513   -0.1467   -1.5841 O   0  0  0  0  0  0  0  0  0  0  0  0
   -0.2123    0.6267    0.5639 C   0  0  0  0  0  0  0  0  0  0  0  0
   -0.2254    2.1468    0.6431 C   0  0  0  0  0  0  0  0  0  0  0  0
   -0.5670    2.9542   -0.4535 C   0  0  0  0  0  0  0  0  0  0  0  0
   -0.5552    4.3465   -0.3426 C   0  0  0  0  0  0  0  0  0  0  0  0
   -0.1884    4.9505    0.8578 C   0  0  0  0  0  0  0  0  0  0  0  0
    0.1758    4.1645    1.9479 C   0  0  0  0  0  0  0  0  0  0  0  0
    0.1633    2.7731    1.8403 C   0  0  0  0  0  0  0  0  0  0  0  0
    1.0906    0.1893    0.0802 N   0  0  0  0  0  0  0  0  0  0  0  0
    2.0944   -0.2175    0.9136 C   0  0  0  0  0  0  0  0  0  0  0  0
    1.9724   -0.2305    2.1357 O   0  0  0  0  0  0  0  0  0  0  0  0
    3.3110   -0.6404    0.2585 C   0  0  0  0  0  0  0  0  0  0  0  0
    3.6747   -0.7288   -1.0752 C   0  0  0  0  0  0  0  0  0  0  0  0
    5.0104   -1.2157   -1.1467 C   0  0  0  0  0  0  0  0  0  0  0  0
    5.8927   -1.5038   -2.2055 C   0  0  0  0  0  0  0  0  0  0  0  0
    7.1756   -1.9833   -1.9157 C   0  0  0  0  0  0  0  0  0  0  0  0
    7.5813   -2.1755   -0.5965 C   0  0  0  0  0  0  0  0  0  0  0  0
    6.7217   -1.8961    0.4703 C   0  0  0  0  0  0  0  0  0  0  0  0
    5.4433   -1.4178    0.1612 C   0  0  0  0  0  0  0  0  0  0  0  0
    4.4032   -1.0642    0.9855 N   0  0  0  0  0  0  0  0  0  0  0  0
   -4.6004    1.4997    0.7288 H   0  0  0  0  0  0  0  0  0  0  0  0
   -4.6750    1.1265    2.4546 H   0  0  0  0  0  0  0  0  0  0  0  0
   -6.3389   -0.1475    1.0669 H   0  0  0  0  0  0  0  0  0  0  0  0
   -5.2699   -1.1917    2.0187 H   0  0  0  0  0  0  0  0  0  0  0  0
   -6.7840   -2.1447   -0.3020 H   0  0  0  0  0  0  0  0  0  0  0  0
   -6.1535   -3.4036   -2.3263 H   0  0  0  0  0  0  0  0  0  0  0  0
   -3.8517   -3.2059   -3.2292 H   0  0  0  0  0  0  0  0  0  0  0  0
   -2.2121   -1.8094   -2.1467 H   0  0  0  0  0  0  0  0  0  0  0  0
   -2.7673   -0.5064    2.1681 H   0  0  0  0  0  0  0  0  0  0  0  0
   -2.3765    1.1494    1.7139 H   0  0  0  0  0  0  0  0  0  0  0  0
   -0.3693    0.1890    1.5562 H   0  0  0  0  0  0  0  0  0  0  0  0
   -0.8403    2.5134   -1.4107 H   0  0  0  0  0  0  0  0  0  0  0  0
   -0.8249    4.9598   -1.1988 H   0  0  0  0  0  0  0  0  0  0  0  0
   -0.1741    6.0342    0.9392 H   0  0  0  0  0  0  0  0  0  0  0  0
    0.4800    4.6340    2.8799 H   0  0  0  0  0  0  0  0  0  0  0  0
    0.4720    2.1740    2.6963 H   0  0  0  0  0  0  0  0  0  0  0  0
    1.2024    0.1548   -0.9241 H   0  0  0  0  0  0  0  0  0  0  0  0
    3.0570   -0.4746   -1.9260 H   0  0  0  0  0  0  0  0  0  0  0  0
    5.5843   -1.3567   -3.2362 H   0  0  0  0  0  0  0  0  0  0  0  0
    7.8607   -2.2072   -2.7296 H   0  0  0  0  0  0  0  0  0  0  0  0
    8.5823   -2.5488   -0.3920 H   0  0  0  0  0  0  0  0  0  0  0  0
    7.0400   -2.0466    1.4966 H   0  0  0  0  0  0  0  0  0  0  0  0
    4.4189   -1.1028    1.9961 H   0  0  0  0  0  0  0  0  0  0  0  0
  1  2  1  0
  2  3  1  0
  3  4  2  0
  4  5  1  0
  5  6  2  0
  6  7  1  0
  7  8  2  0
  8  9  1  0
  9 10  1  0
  9 11  1  0
 11 12  2  0
 11 13  1  0
 13 14  1  0
 14 15  2  0
 15 16  1  0
 16 17  2  0
 17 18  1  0
 18 19  2  0
 13 20  1  0
 20 21  1  0
 21 22  2  0
 21 23  1  0
 23 24  2  0
 24 25  1  0
 25 26  2  0
 26 27  1  0
 27 28  2  0
 28 29  1  0
 29 30  2  0
 30 31  1  0
 10  1  1  0
  8  3  1  0
 19 14  1  0
 31 23  1  0
 30 25  1  0
  1 32  1  0
  1 33  1  0
  2 34  1  0
  2 35  1  0
  4 36  1  0
  5 37  1  0
  6 38  1  0
  7 39  1  0
 10 40  1  0
 10 41  1  0
 13 42  1  0
 15 43  1  0
 16 44  1  0
 17 45  1  0
 18 46  1  0
 19 47  1  0
 20 48  1  0
 24 49  1  0
 26 50  1  0
 27 51  1  0
 28 52  1  0
 29 53  1  0
 31 54  1  0
M  END
